1J7T_PAR_A_45
 OpenBabel03221816523D

 87 90  0  0  1  0  0  0  0  0999 V2000
    4.9781   16.2354    3.1225 C   0  0  2  0  0  0  0  0  0  0  0  0
    4.6669   16.4841    4.1377 H   0  0  0  0  0  0  0  0  0  0  0  0
    3.8212   16.1713    2.2913 O   0  0  0  0  0  0  0  0  0  0  0  0
    2.7396   15.3131    2.6983 C   0  0  2  0  0  0  0  0  0  0  0  0
    1.9078   15.6155    2.0487 H   0  0  0  0  0  0  0  0  0  0  0  0
    2.2694   15.5437    4.1777 C   0  0  2  0  0  0  0  0  0  0  0  0
    3.1068   15.3516    4.8574 H   0  0  0  0  0  0  0  0  0  0  0  0
    1.1366   14.5964    4.6027 C   0  0  0  0  0  0  0  0  0  0  0  0
    1.5093   13.1446    4.2984 C   0  0  1  0  0  0  0  0  0  0  0  0
    2.4493   12.9108    4.8173 H   0  0  0  0  0  0  0  0  0  0  0  0
    0.5336   12.1970    4.8418 N   0  0  0  0  0  0  0  0  0  0  0  0
    1.7357   12.9953    2.7659 C   0  0  1  0  0  0  0  0  0  0  0  0
    0.8719   13.3941    2.2134 H   0  0  0  0  0  0  0  0  0  0  0  0
    3.0074   13.8050    2.4150 C   0  0  1  0  0  0  0  0  0  0  0  0
    3.7876   13.4672    3.1058 H   0  0  0  0  0  0  0  0  0  0  0  0
    3.5638   13.4509    1.1456 O   0  0  0  0  0  0  0  0  0  0  0  0
    3.0411   14.0294   -0.0380 C   0  0  1  0  0  0  0  0  0  0  0  0
    2.9342   15.1112    0.0767 H   0  0  0  0  0  0  0  0  0  0  0  0
    4.0377   13.7124   -1.1643 C   0  0  2  0  0  0  0  0  0  0  0  0
    4.2750   12.6420   -1.1583 H   0  0  0  0  0  0  0  0  0  0  0  0
    5.2820   14.3908   -1.0558 O   0  0  0  0  0  0  0  0  0  0  0  0
    3.2043   14.0624   -2.3870 C   0  0  2  0  0  0  0  0  0  0  0  0
    3.5706   13.6381   -3.3255 H   0  0  0  0  0  0  0  0  0  0  0  0
    3.0111   15.4792   -2.5666 O   0  0  0  0  0  0  0  0  0  0  0  0
    4.1438   16.2867   -2.9184 C   0  0  2  0  0  0  0  0  0  0  0  0
    4.9422   16.1539   -2.1922 H   0  0  0  0  0  0  0  0  0  0  0  0
    3.6912   17.7778   -2.8569 C   0  0  2  0  0  0  0  0  0  0  0  0
    3.2856   17.9851   -1.8618 H   0  0  0  0  0  0  0  0  0  0  0  0
    2.6066   18.0286   -3.8485 N   0  0  0  0  0  0  0  0  0  0  0  0
    4.9153   18.6867   -3.1172 C   0  0  1  0  0  0  0  0  0  0  0  0
    4.5596   19.7213   -3.1921 H   0  0  0  0  0  0  0  0  0  0  0  0
    5.8470   18.7041   -2.0294 O   0  0  0  0  0  0  0  0  0  0  0  0
    5.6154   18.3117   -4.4324 C   0  0  2  0  0  0  0  0  0  0  0  0
    6.5882   18.8274   -4.4789 H   0  0  0  0  0  0  0  0  0  0  0  0
    4.8479   18.7787   -5.5478 O   0  0  0  0  0  0  0  0  0  0  0  0
    5.8508   16.7823   -4.5272 C   0  0  1  0  0  0  0  0  0  0  0  0
    6.6177   16.4804   -3.8004 H   0  0  0  0  0  0  0  0  0  0  0  0
    4.6487   16.0212   -4.2375 O   0  0  0  0  0  0  0  0  0  0  0  0
    6.3302   16.3824   -5.9431 C   0  0  0  0  0  0  0  0  0  0  0  0
    7.5459   17.0859   -6.3904 N   0  0  0  0  0  0  0  0  0  0  0  0
    1.8317   13.4765   -1.9441 C   0  0  2  0  0  0  0  0  0  0  0  0
    1.0049   14.1210   -2.2648 H   0  0  0  0  0  0  0  0  0  0  0  0
    1.8042   13.4664   -0.4784 O   0  0  0  0  0  0  0  0  0  0  0  0
    1.5429   12.0487   -2.4342 C   0  0  0  0  0  0  0  0  0  0  0  0
    2.5497   11.1209   -2.0424 O   0  0  0  0  0  0  0  0  0  0  0  0
    1.8545   11.6227    2.3929 O   0  0  0  0  0  0  0  0  0  0  0  0
    1.8227   16.9251    4.4149 N   0  0  0  0  0  0  0  0  0  0  0  0
    5.8834   17.4016    2.6150 C   0  0  2  0  0  0  0  0  0  0  0  0
    5.3013   18.3292    2.6624 H   0  0  0  0  0  0  0  0  0  0  0  0
    6.3018   17.2238    1.1977 N   0  0  0  0  0  0  0  0  0  0  0  0
    7.1056   17.4959    3.5628 C   0  0  1  0  0  0  0  0  0  0  0  0
    7.7968   18.2485    3.1556 H   0  0  0  0  0  0  0  0  0  0  0  0
    6.7722   17.9490    4.8788 O   0  0  0  0  0  0  0  0  0  0  0  0
    7.8370   16.1435    3.6676 C   0  0  2  0  0  0  0  0  0  0  0  0
    8.6080   16.1800    4.4465 H   0  0  0  0  0  0  0  0  0  0  0  0
    8.5033   15.8616    2.4281 O   0  0  0  0  0  0  0  0  0  0  0  0
    6.8601   14.9889    3.9681 C   0  0  2  0  0  0  0  0  0  0  0  0
    7.3552   14.0469    3.7042 H   0  0  0  0  0  0  0  0  0  0  0  0
    5.6962   15.0099    3.1200 O   0  0  0  0  0  0  0  0  0  0  0  0
    6.4787   14.8853    5.4576 C   0  0  0  0  0  0  0  0  0  0  0  0
    5.4759   13.8901    5.6691 O   0  0  0  0  0  0  0  0  0  0  0  0
    0.2033   14.8586    4.0866 H   0  0  0  0  0  0  0  0  0  0  0  0
    0.9487   14.7179    5.6786 H   0  0  0  0  0  0  0  0  0  0  0  0
   -0.1396   11.9315    4.1218 H   0  0  0  0  0  0  0  0  0  0  0  0
    0.0084   12.6104    5.6107 H   0  0  0  0  0  0  0  0  0  0  0  0
    5.3107   14.7760   -0.1606 H   0  0  0  0  0  0  0  0  0  0  0  0
    2.8328   17.4554   -4.6720 H   0  0  0  0  0  0  0  0  0  0  0  0
    2.6477   18.9870   -4.1835 H   0  0  0  0  0  0  0  0  0  0  0  0
    6.1477   17.8019   -1.8216 H   0  0  0  0  0  0  0  0  0  0  0  0
    4.7053   19.7352   -5.4349 H   0  0  0  0  0  0  0  0  0  0  0  0
    5.5308   16.5458   -6.6742 H   0  0  0  0  0  0  0  0  0  0  0  0
    6.5292   15.3058   -5.9557 H   0  0  0  0  0  0  0  0  0  0  0  0
    7.3106   18.0707   -6.5321 H   0  0  0  0  0  0  0  0  0  0  0  0
    7.7872   16.7439   -7.3195 H   0  0  0  0  0  0  0  0  0  0  0  0
    0.5939   11.6842   -2.0230 H   0  0  0  0  0  0  0  0  0  0  0  0
    1.4691   12.0240   -3.5259 H   0  0  0  0  0  0  0  0  0  0  0  0
    2.4595   11.0149   -1.0746 H   0  0  0  0  0  0  0  0  0  0  0  0
    2.2657   11.1544    3.1369 H   0  0  0  0  0  0  0  0  0  0  0  0
    2.6071   17.5697    4.3594 H   0  0  0  0  0  0  0  0  0  0  0  0
    1.4265   17.0167    5.3502 H   0  0  0  0  0  0  0  0  0  0  0  0
    6.8627   16.3635    1.1526 H   0  0  0  0  0  0  0  0  0  0  0  0
    6.9271   17.9818    0.9274 H   0  0  0  0  0  0  0  0  0  0  0  0
    5.8231   18.1527    4.9464 H   0  0  0  0  0  0  0  0  0  0  0  0
    9.1309   16.5880    2.2596 H   0  0  0  0  0  0  0  0  0  0  0  0
    7.3587   14.6201    6.0540 H   0  0  0  0  0  0  0  0  0  0  0  0
    6.0747   15.8156    5.8582 H   0  0  0  0  0  0  0  0  0  0  0  0
    5.6695   13.1507    5.0651 H   0  0  0  0  0  0  0  0  0  0  0  0
  1 48  1  6  0  0  0
  1 59  1  0  0  0  0
  1  3  1  0  0  0  0
  1  2  1  0  0  0  0
  4  6  1  1  0  0  0
  4  5  1  0  0  0  0
  4  3  1  0  0  0  0
  6  7  1  1  0  0  0
  6  8  1  0  0  0  0
  6 47  1  0  0  0  0
  8  9  1  0  0  0  0
  8 62  1  0  0  0  0
  8 63  1  0  0  0  0
  9 12  1  6  0  0  0
  9 11  1  0  0  0  0
  9 10  1  0  0  0  0
 11 64  1  0  0  0  0
 11 65  1  0  0  0  0
 12 13  1  0  0  0  0
 12 14  1  6  0  0  0
 12 46  1  0  0  0  0
 14  4  1  1  0  0  0
 14 16  1  0  0  0  0
 14 15  1  0  0  0  0
 16 17  1  0  0  0  0
 17 18  1  0  0  0  0
 17 19  1  6  0  0  0
 17 43  1  0  0  0  0
 19 22  1  6  0  0  0
 19 21  1  0  0  0  0
 19 20  1  0  0  0  0
 21 66  1  0  0  0  0
 22 23  1  0  0  0  0
 22 24  1  0  0  0  0
 22 41  1  1  0  0  0
 25 27  1  1  0  0  0
 25 38  1  0  0  0  0
 25 26  1  0  0  0  0
 25 24  1  0  0  0  0
 27 30  1  6  0  0  0
 27 29  1  0  0  0  0
 27 28  1  0  0  0  0
 29 67  1  0  0  0  0
 29 68  1  0  0  0  0
 30 32  1  0  0  0  0
 30 31  1  6  0  0  0
 32 69  1  0  0  0  0
 33 30  1  1  0  0  0
 33 34  1  0  0  0  0
 33 35  1  0  0  0  0
 35 70  1  0  0  0  0
 36 33  1  1  0  0  0
 36 37  1  0  0  0  0
 36 38  1  0  0  0  0
 36 39  1  0  0  0  0
 39 40  1  0  0  0  0
 39 71  1  0  0  0  0
 39 72  1  0  0  0  0
 40 73  1  0  0  0  0
 40 74  1  0  0  0  0
 41 43  1  0  0  0  0
 41 44  1  0  0  0  0
 41 42  1  6  0  0  0
 44 45  1  0  0  0  0
 44 75  1  0  0  0  0
 44 76  1  0  0  0  0
 45 77  1  0  0  0  0
 46 78  1  0  0  0  0
 47 79  1  0  0  0  0
 47 80  1  0  0  0  0
 48 51  1  1  0  0  0
 48 50  1  0  0  0  0
 48 49  1  0  0  0  0
 50 81  1  0  0  0  0
 50 82  1  0  0  0  0
 51 54  1  1  0  0  0
 51 53  1  0  0  0  0
 51 52  1  0  0  0  0
 53 83  1  0  0  0  0
 54 55  1  0  0  0  0
 54 56  1  0  0  0  0
 54 57  1  1  0  0  0
 56 84  1  0  0  0  0
 57 59  1  0  0  0  0
 57 60  1  0  0  0  0
 57 58  1  6  0  0  0
 60 61  1  0  0  0  0
 60 85  1  0  0  0  0
 60 86  1  0  0  0  0
 61 87  1  0  0  0  0
M  END
$$$$
