3D2X_D2X_A_85
 OpenBabel03221817293D

 44 45  0  0  0  0  0  0  0  0999 V2000
    6.9032    0.9013   -3.7052 O   0  0  0  0  0  0  0  0  0  0  0  0
    7.2089    1.2724   -2.0433 P   0  0  0  0  0  0  0  0  0  0  0  0
    5.9338    2.1244   -2.0463 O   0  0  0  0  0  0  0  0  0  0  0  0
    6.7255   -0.2272   -1.6503 O   0  0  0  0  0  0  0  0  0  0  0  0
    7.5147    1.6434   -0.3815 O   0  0  0  0  0  0  0  0  0  0  0  0
    8.3861    3.1341   -0.2739 P   0  0  2  0  0  0  0  0  0  0  0  0
    9.4866    2.5575   -1.1978 O   0  0  0  0  0  0  0  0  0  0  0  0
    9.2411    2.8545    1.0915 O   0  0  0  0  0  0  0  0  0  0  0  0
    7.1564    3.7784    0.7584 O   0  0  0  0  0  0  0  0  0  0  0  0
    6.4417    4.8152    0.0904 C   0  0  0  0  0  0  0  0  0  0  0  0
    5.3309    5.4127    0.9556 C   0  0  0  0  0  0  0  0  0  0  0  0
    4.6270    6.5253    0.2148 C   0  0  0  0  0  0  0  0  0  0  0  0
    3.5257    6.4797   -0.6290 C   0  0  0  0  0  0  0  0  0  0  0  0
    2.6829    5.2948   -0.9199 C   0  0  0  0  0  0  0  0  0  0  0  0
    3.3016    7.7074   -1.2614 N   0  3  0  0  0  0  0  0  0  0  0  0
    4.0841    8.6873   -0.8365 C   0  0  0  0  0  0  0  0  0  0  0  0
    5.2115    8.1373    0.3223 S   0  0  0  0  0  0  0  0  0  0  0  0
    2.3468    7.9531   -2.3697 C   0  0  0  0  0  0  0  0  0  0  0  0
    1.0778    8.5294   -1.8410 C   0  0  0  0  0  0  0  0  0  0  0  0
   -0.0151    7.7646   -1.5133 C   0  0  0  0  0  0  0  0  0  0  0  0
   -1.0815    8.2442   -0.8544 N   0  0  0  0  0  0  0  0  0  0  0  0
   -1.0797    9.5541   -0.5537 C   0  0  0  0  0  0  0  0  0  0  0  0
   -2.1600   10.0595    0.3465 C   0  0  0  0  0  0  0  0  0  0  0  0
   -0.1284   10.4144   -0.9594 N   0  0  0  0  0  0  0  0  0  0  0  0
    0.9070    9.8672   -1.5958 C   0  0  0  0  0  0  0  0  0  0  0  0
    1.8429   10.7728   -1.9888 O   0  0  0  0  0  0  0  0  0  0  0  0
    5.9351    0.8545   -3.7990 H   0  0  0  0  0  0  0  0  0  0  0  0
    5.8028   -0.2312   -1.3397 H   0  0  0  0  0  0  0  0  0  0  0  0
   10.1194    2.5063    0.8427 H   0  0  0  0  0  0  0  0  0  0  0  0
    6.0128    4.4067   -0.8307 H   0  0  0  0  0  0  0  0  0  0  0  0
    7.1603    5.5907   -0.1975 H   0  0  0  0  0  0  0  0  0  0  0  0
    5.7517    5.7755    1.9006 H   0  0  0  0  0  0  0  0  0  0  0  0
    4.6191    4.6269    1.2339 H   0  0  0  0  0  0  0  0  0  0  0  0
    2.5449    4.6956   -0.0131 H   0  0  0  0  0  0  0  0  0  0  0  0
    3.1544    4.6674   -1.6797 H   0  0  0  0  0  0  0  0  0  0  0  0
    1.6829    5.5558   -1.2606 H   0  0  0  0  0  0  0  0  0  0  0  0
    4.0479    9.7164   -1.1794 H   0  0  0  0  0  0  0  0  0  0  0  0
    2.1699    7.0210   -2.9187 H   0  0  0  0  0  0  0  0  0  0  0  0
    2.8174    8.6263   -3.0966 H   0  0  0  0  0  0  0  0  0  0  0  0
   -0.0852    6.7045   -1.7423 H   0  0  0  0  0  0  0  0  0  0  0  0
   -2.4423    9.2832    1.0672 H   0  0  0  0  0  0  0  0  0  0  0  0
   -3.0394   10.3400   -0.2363 H   0  0  0  0  0  0  0  0  0  0  0  0
   -1.8099   10.9281    0.9133 H   0  0  0  0  0  0  0  0  0  0  0  0
    1.3563   11.6050   -1.8209 H   0  0  0  0  0  0  0  0  0  0  0  0
  1  2  1  0  0  0  0
  1 27  1  0  0  0  0
  2  3  2  0  0  0  0
  2  4  1  0  0  0  0
  2  5  1  0  0  0  0
  4 28  1  0  0  0  0
  6  8  1  0  0  0  0
  6  9  1  0  0  0  0
  6  7  2  6  0  0  0
  6  5  1  0  0  0  0
  8 29  1  0  0  0  0
  9 10  1  0  0  0  0
 10 11  1  0  0  0  0
 10 30  1  0  0  0  0
 10 31  1  0  0  0  0
 11 12  1  0  0  0  0
 11 32  1  0  0  0  0
 11 33  1  0  0  0  0
 12 13  2  0  0  0  0
 12 17  1  0  0  0  0
 13 14  1  0  0  0  0
 13 15  1  0  0  0  0
 14 34  1  0  0  0  0
 14 35  1  0  0  0  0
 14 36  1  0  0  0  0
 15 16  2  0  0  0  0
 15 18  1  0  0  0  0
 16 17  1  0  0  0  0
 16 37  1  0  0  0  0
 18 19  1  0  0  0  0
 18 38  1  0  0  0  0
 18 39  1  0  0  0  0
 19 20  2  0  0  0  0
 19 25  1  0  0  0  0
 20 21  1  0  0  0  0
 20 40  1  0  0  0  0
 21 22  2  0  0  0  0
 22 23  1  0  0  0  0
 22 24  1  0  0  0  0
 23 41  1  0  0  0  0
 23 42  1  0  0  0  0
 23 43  1  0  0  0  0
 24 25  2  0  0  0  0
 25 26  1  0  0  0  0
 26 44  1  0  0  0  0
M  CHG  1  15   1
M  END
$$$$
