ligands/ligand.pdb
 OpenBabel10091713573D

 70 72  0  0  1  0  0  0  0  0999 V2000
    9.5540    1.8700   -2.7680 C   0  0  1  0  0  0  0  0  0  0  0  0
    8.2040    1.9250   -3.3360 O   0  0  0  0  0  0  0  0  0  0  0  0
    7.2300    2.7260   -2.5970 C   0  0  2  0  0  0  0  0  0  0  0  0
    7.6860    4.1090   -2.5080 O   0  0  0  0  0  0  0  0  0  0  0  0
    7.0590    2.1140   -1.1780 C   0  0  2  0  0  0  0  0  0  0  0  0
    6.0800    2.8520   -0.3540 N   0  0  0  0  0  0  0  0  0  0  0  0
    8.4300    2.0280   -0.4550 C   0  0  0  0  0  0  0  0  0  0  0  0
    9.4950    1.3170   -1.3180 C   0  0  0  0  0  0  0  0  0  0  0  0
   10.5180    1.0320   -3.6330 C   0  0  0  0  0  0  0  0  0  0  0  0
   10.3310    1.1780   -5.0860 N   0  0  0  0  0  0  0  0  0  0  0  0
    8.0730    6.2810   -3.5710 C   0  0  1  0  0  0  0  0  0  0  0  0
    7.4150    7.4540   -4.3420 C   0  0  0  0  0  0  0  0  0  0  0  0
    6.1640    7.9720   -3.5800 C   0  0  1  0  0  0  0  0  0  0  0  0
    5.5840    9.1280   -4.2930 N   0  0  0  0  0  0  0  0  0  0  0  0
    5.1260    6.8250   -3.4030 C   0  0  1  0  0  0  0  0  0  0  0  0
    5.7450    5.5700   -2.7430 C   0  0  1  0  0  0  0  0  0  0  0  0
    4.7880    4.5240   -2.8290 O   0  0  0  0  0  0  0  0  0  0  0  0
    7.0790    5.0950   -3.3840 C   0  0  2  0  0  0  0  0  0  0  0  0
    9.3030    5.8300   -4.2490 N   0  0  0  0  0  0  0  0  0  0  0  0
    1.8640    5.1390   -1.9320 C   0  0  0  0  0  0  0  0  0  0  0  0
    0.9080    5.9630   -1.0250 C   0  0  2  0  0  0  0  0  0  0  0  0
   -0.3660    5.9970   -1.6650 O   0  0  0  0  0  0  0  0  0  0  0  0
    1.4970    7.4170   -0.8560 C   0  0  1  0  0  0  0  0  0  0  0  0
    1.7360    8.0660   -2.2660 C   0  0  2  0  0  0  0  0  0  0  0  0
    2.6940    7.1800   -3.1020 C   0  0  1  0  0  0  0  0  0  0  0  0
    4.0310    7.2440   -2.5460 O   0  0  0  0  0  0  0  0  0  0  0  0
    2.1730    5.8180   -3.1820 O   0  0  0  0  0  0  0  0  0  0  0  0
    2.2860    9.3750   -2.1580 O   0  0  0  0  0  0  0  0  0  0  0  0
    0.7510    8.3100    0.0960 N   0  0  0  0  0  0  0  0  0  0  0  0
   -0.5760    8.8280   -0.2940 C   0  0  0  0  0  0  0  0  0  0  0  0
    0.7340    5.1990    0.3070 C   0  0  0  0  0  0  0  0  0  0  0  0
    9.9408    2.8675   -2.7511 H   0  0  0  0  0  0  0  0  0  0  0  0
    6.2880    2.7192   -3.1044 H   0  0  0  0  0  0  0  0  0  0  0  0
    6.6694    1.1261   -1.3088 H   0  0  0  0  0  0  0  0  0  0  0  0
    6.4121    3.8045   -0.2030 H   0  0  0  0  0  0  0  0  0  0  0  0
    5.9708    2.3834    0.5454 H   0  0  0  0  0  0  0  0  0  0  0  0
    8.3056    1.4840    0.4580 H   0  0  0  0  0  0  0  0  0  0  0  0
    8.7683    3.0257   -0.2678 H   0  0  0  0  0  0  0  0  0  0  0  0
   10.4528    1.4517   -0.8605 H   0  0  0  0  0  0  0  0  0  0  0  0
    9.2278    0.2825   -1.3760 H   0  0  0  0  0  0  0  0  0  0  0  0
   10.3797    0.0012   -3.3817 H   0  0  0  0  0  0  0  0  0  0  0  0
   11.5031    1.3908   -3.4191 H   0  0  0  0  0  0  0  0  0  0  0  0
    9.4011    0.8477   -5.3440 H   0  0  0  0  0  0  0  0  0  0  0  0
   11.0356    0.6273   -5.5765 H   0  0  0  0  0  0  0  0  0  0  0  0
    8.3382    6.6410   -2.5989 H   0  0  0  0  0  0  0  0  0  0  0  0
    7.1205    7.1157   -5.3135 H   0  0  0  0  0  0  0  0  0  0  0  0
    8.1228    8.2518   -4.4282 H   0  0  0  0  0  0  0  0  0  0  0  0
    6.4530    8.2986   -2.6029 H   0  0  0  0  0  0  0  0  0  0  0  0
    5.2998    8.8419   -5.2299 H   0  0  0  0  0  0  0  0  0  0  0  0
    6.2805    9.8701   -4.3608 H   0  0  0  0  0  0  0  0  0  0  0  0
    4.7843    6.5912   -4.3896 H   0  0  0  0  0  0  0  0  0  0  0  0
    5.9870    5.8291   -1.7335 H   0  0  0  0  0  0  0  0  0  0  0  0
    4.6050    4.3290   -3.7614 H   0  0  0  0  0  0  0  0  0  0  0  0
    6.8667    4.6787   -4.3466 H   0  0  0  0  0  0  0  0  0  0  0  0
    9.0705    5.4824   -5.1793 H   0  0  0  0  0  0  0  0  0  0  0  0
    9.7365    5.0835   -3.7057 H   0  0  0  0  0  0  0  0  0  0  0  0
    1.3998    4.2015   -2.1569 H   0  0  0  0  0  0  0  0  0  0  0  0
    2.7825    5.0068   -1.3993 H   0  0  0  0  0  0  0  0  0  0  0  0
   -0.7059    5.0932   -1.7569 H   0  0  0  0  0  0  0  0  0  0  0  0
    2.4417    7.3041   -0.3665 H   0  0  0  0  0  0  0  0  0  0  0  0
    0.7849    8.1393   -2.7506 H   0  0  0  0  0  0  0  0  0  0  0  0
    2.7547    7.5461   -4.1056 H   0  0  0  0  0  0  0  0  0  0  0  0
    3.1502    9.3275   -1.7201 H   0  0  0  0  0  0  0  0  0  0  0  0
    1.3462    9.1188    0.2747 H   0  0  0  0  0  0  0  0  0  0  0  0
   -1.2348    8.0084   -0.4916 H   0  0  0  0  0  0  0  0  0  0  0  0
   -0.4798    9.4285   -1.1744 H   0  0  0  0  0  0  0  0  0  0  0  0
   -0.9747    9.4224    0.5014 H   0  0  0  0  0  0  0  0  0  0  0  0
    0.3323    4.2269    0.1107 H   0  0  0  0  0  0  0  0  0  0  0  0
    0.0650    5.7396    0.9435 H   0  0  0  0  0  0  0  0  0  0  0  0
    1.6843    5.1016    0.7890 H   0  0  0  0  0  0  0  0  0  0  0  0
  1  2  1  0  0  0  0
  1  8  1  0  0  0  0
  1  9  1  0  0  0  0
  1 32  1  1  0  0  0
  2  3  1  0  0  0  0
  3  4  1  0  0  0  0
  3  5  1  0  0  0  0
  3 33  1  6  0  0  0
  5  6  1  0  0  0  0
  5  7  1  0  0  0  0
  5 34  1  6  0  0  0
  6 35  1  0  0  0  0
  6 36  1  0  0  0  0
  7  8  1  0  0  0  0
  7 37  1  0  0  0  0
  7 38  1  0  0  0  0
  8 39  1  0  0  0  0
  8 40  1  0  0  0  0
  9 10  1  0  0  0  0
  9 41  1  0  0  0  0
  9 42  1  0  0  0  0
 10 43  1  0  0  0  0
 10 44  1  0  0  0  0
 11 12  1  0  0  0  0
 11 18  1  0  0  0  0
 11 19  1  0  0  0  0
 11 45  1  1  0  0  0
 12 13  1  0  0  0  0
 12 46  1  0  0  0  0
 12 47  1  0  0  0  0
 13 14  1  0  0  0  0
 13 15  1  0  0  0  0
 13 48  1  1  0  0  0
 14 49  1  0  0  0  0
 14 50  1  0  0  0  0
 15 16  1  0  0  0  0
 15 26  1  0  0  0  0
 15 51  1  6  0  0  0
 16 17  1  0  0  0  0
 16 18  1  0  0  0  0
 16 52  1  1  0  0  0
 17 53  1  0  0  0  0
 18  4  1  0  0  0  0
 18 54  1  6  0  0  0
 19 55  1  0  0  0  0
 19 56  1  0  0  0  0
 20 21  1  0  0  0  0
 20 27  1  0  0  0  0
 20 57  1  0  0  0  0
 20 58  1  0  0  0  0
 21 22  1  6  0  0  0
 21 31  1  0  0  0  0
 22 59  1  0  0  0  0
 23 21  1  0  0  0  0
 23 24  1  0  0  0  0
 23 29  1  0  0  0  0
 23 60  1  1  0  0  0
 24 25  1  0  0  0  0
 24 28  1  0  0  0  0
 24 61  1  6  0  0  0
 25 26  1  0  0  0  0
 25 27  1  0  0  0  0
 25 62  1  6  0  0  0
 28 63  1  0  0  0  0
 29 30  1  0  0  0  0
 29 64  1  0  0  0  0
 30 65  1  0  0  0  0
 30 66  1  0  0  0  0
 30 67  1  0  0  0  0
 31 68  1  0  0  0  0
 31 69  1  0  0  0  0
 31 70  1  0  0  0  0
M  END
$$$$
