3LA5_5AZ_A_84
 OpenBabel03221817303D

 12 12  0  0  0  0  0  0  0  0999 V2000
   -1.3529   -0.0317    0.0377 C   0  0  0  0  0  0  0  0  0  0  0  0
   -2.5809   -0.0407    0.0309 O   0  0  0  0  0  0  0  0  0  0  0  0
   -0.7011    1.1607    0.0368 N   0  0  0  0  0  0  0  0  0  0  0  0
   -1.2767    1.9835    0.0720 H   0  0  0  0  0  0  0  0  0  0  0  0
    0.6432    1.2135    0.0464 C   0  0  0  0  0  0  0  0  0  0  0  0
    1.3542    0.1429    0.0499 N   0  0  0  0  0  0  0  0  0  0  0  0
    0.6779   -1.0428    0.0544 C   0  0  0  0  0  0  0  0  0  0  0  0
   -0.6031   -1.1657    0.0426 N   0  0  0  0  0  0  0  0  0  0  0  0
    1.2185    2.4394    0.0430 N   0  0  0  0  0  0  0  0  0  0  0  0
    1.2962   -1.9559    0.0664 H   0  0  0  0  0  0  0  0  0  0  0  0
    0.7238    3.1865   -0.4255 H   0  0  0  0  0  0  0  0  0  0  0  0
    2.2077    2.4106   -0.1848 H   0  0  0  0  0  0  0  0  0  0  0  0
  1  2  2  0  0  0  0
  1  3  1  0  0  0  0
  1  8  1  0  0  0  0
  3  4  1  0  0  0  0
  3  5  1  0  0  0  0
  5  6  2  0  0  0  0
  5  9  1  0  0  0  0
  6  7  1  0  0  0  0
  7  8  2  0  0  0  0
  7 10  1  0  0  0  0
  9 11  1  0  0  0  0
  9 12  1  0  0  0  0
M  END
$$$$
