2F4T_AB9_B_1
 OpenBabel10091713573D
Coordinates from PDB:2F4T:B:1 Model:1 without hydrogens
 78 79  0  0  1  0  0  0  0  0999 V2000
    2.8240   -5.7880   25.8520 C   0  0  1  0  0  0  0  0  0  0  0  0
    3.6860   -9.5740   29.7430 C   0  0  1  0  0  0  0  0  0  0  0  0
    2.3500   -4.3110   26.0050 C   0  0  1  0  0  0  0  0  0  0  0  0
    2.5780   -9.8780   28.6690 C   0  0  0  0  0  0  0  0  0  0  0  0
    3.2950  -11.4640   31.5580 C   0  0  0  0  0  0  0  0  0  0  0  0
    4.2680  -12.6220   31.5810 C   0  0  1  0  0  0  0  0  0  0  0  0
    3.8390  -13.5630   32.7090 C   0  0  0  0  0  0  0  0  0  0  0  0
    4.9420  -13.9510   33.7080 C   0  0  0  0  0  0  0  0  0  0  0  0
    7.0880   -8.1710   30.5400 C   0  0  0  0  0  0  0  0  0  0  0  0
    6.9730   -7.6830   31.9760 C   0  0  0  0  0  0  0  0  0  0  0  0
    0.7880   -4.2360   25.9220 C   0  0  1  0  0  0  0  0  0  0  0  0
    1.9420   -8.5920   28.1230 C   0  0  2  0  0  0  0  0  0  0  0  0
    7.1470   -4.0360   33.3290 C   0  0  0  0  0  0  0  0  0  0  0  0
    6.9690   -5.5780   33.4550 C   0  0  0  0  0  0  0  0  0  0  0  0
    2.3290   -6.4920   27.0380 O   0  0  0  0  0  0  0  0  0  0  0  0
    2.8210   -3.7510   27.2500 N   0  0  0  0  0  0  0  0  0  0  0  0
    0.3370   -2.9020   26.0540 O   0  0  0  0  0  0  0  0  0  0  0  0
    0.3550   -4.8240   24.5750 C   0  0  2  0  0  0  0  0  0  0  0  0
   -1.0550   -4.7750   24.4290 O   0  0  0  0  0  0  0  0  0  0  0  0
    0.8610   -6.2900   24.4490 C   0  0  2  0  0  0  0  0  0  0  0  0
    2.2950   -6.3590   24.5920 O   0  0  0  0  0  0  0  0  0  0  0  0
    0.4910   -6.8940   23.1470 C   0  0  0  0  0  0  0  0  0  0  0  0
    0.9570   -8.1610   23.0900 N   0  0  0  0  0  0  0  0  0  0  0  0
    4.2620  -10.8410   30.2180 N   0  0  0  0  0  0  0  0  0  0  0  0
    0.9470   -8.8980   27.1000 N   0  0  0  0  0  0  0  0  0  0  0  0
    2.9980   -7.6930   27.5300 C   0  0  1  0  0  0  0  0  0  0  0  0
    4.1050   -7.3560   28.6190 C   0  0  2  0  0  0  0  0  0  0  0  0
    5.1040   -6.4820   28.0130 O   0  0  0  0  0  0  0  0  0  0  0  0
    4.7680   -8.6940   29.0980 C   0  0  1  0  0  0  0  0  0  0  0  0
    5.7640   -8.4300   30.0340 O   0  0  0  0  0  0  0  0  0  0  0  0
    7.0570   -6.2120   32.1090 N   0  0  0  0  0  0  0  0  0  0  0  0
    7.0700   -3.2810   34.6950 N   0  0  0  0  0  0  0  0  0  0  0  0
    2.4240  -11.1260   32.0740 O   0  0  0  0  0  0  0  0  0  0  0  0
    4.3610  -14.8440   34.7150 N   0  0  0  0  0  0  0  0  0  0  0  0
    4.1810  -13.3740   30.3990 O   0  0  0  0  0  0  0  0  0  0  0  0
    3.8887   -5.8750   25.7915 H   0  0  0  0  0  0  0  0  0  0  0  0
    3.2659   -9.0564   30.5800 H   0  0  0  0  0  0  0  0  0  0  0  0
    2.7636   -3.7344   25.2042 H   0  0  0  0  0  0  0  0  0  0  0  0
    1.8146  -10.4772   29.1196 H   0  0  0  0  0  0  0  0  0  0  0  0
    3.0400  -10.3921   27.8522 H   0  0  0  0  0  0  0  0  0  0  0  0
    5.2582  -12.2350   31.7018 H   0  0  0  0  0  0  0  0  0  0  0  0
    3.4673  -14.4622   32.2638 H   0  0  0  0  0  0  0  0  0  0  0  0
    3.1076  -13.0255   33.2756 H   0  0  0  0  0  0  0  0  0  0  0  0
    5.3252  -13.0719   34.1826 H   0  0  0  0  0  0  0  0  0  0  0  0
    5.7432  -14.4439   33.1980 H   0  0  0  0  0  0  0  0  0  0  0  0
    7.6673   -9.0701   30.5103 H   0  0  0  0  0  0  0  0  0  0  0  0
    7.5695   -7.4279   29.9393 H   0  0  0  0  0  0  0  0  0  0  0  0
    7.7656   -8.1203   32.5466 H   0  0  0  0  0  0  0  0  0  0  0  0
    6.0071   -7.9760   32.3311 H   0  0  0  0  0  0  0  0  0  0  0  0
    0.3545   -4.7960   26.7242 H   0  0  0  0  0  0  0  0  0  0  0  0
    1.4635   -8.0928   28.9396 H   0  0  0  0  0  0  0  0  0  0  0  0
    6.3762   -3.6581   32.6902 H   0  0  0  0  0  0  0  0  0  0  0  0
    8.1261   -3.8657   32.9324 H   0  0  0  0  0  0  0  0  0  0  0  0
    6.0126   -5.7905   33.8851 H   0  0  0  0  0  0  0  0  0  0  0  0
    7.7431   -5.9714   34.0803 H   0  0  0  0  0  0  0  0  0  0  0  0
    2.4385   -4.2860   28.0297 H   0  0  0  0  0  0  0  0  0  0  0  0
    2.5173   -2.7800   27.3225 H   0  0  0  0  0  0  0  0  0  0  0  0
    0.7114   -2.3620   25.3405 H   0  0  0  0  0  0  0  0  0  0  0  0
    0.7890   -4.2354   23.7939 H   0  0  0  0  0  0  0  0  0  0  0  0
   -1.4710   -5.3031   25.1283 H   0  0  0  0  0  0  0  0  0  0  0  0
    0.3884   -6.8390   25.2365 H   0  0  0  0  0  0  0  0  0  0  0  0
    0.9203   -6.3199   22.3526 H   0  0  0  0  0  0  0  0  0  0  0  0
   -0.5743   -6.9008   23.0466 H   0  0  0  0  0  0  0  0  0  0  0  0
    1.9725   -8.1544   23.1857 H   0  0  0  0  0  0  0  0  0  0  0  0
    0.7026   -8.5768   22.1940 H   0  0  0  0  0  0  0  0  0  0  0  0
    5.0635  -11.2752   29.8461 H   0  0  0  0  0  0  0  0  0  0  0  0
    1.3979   -9.3742   26.3188 H   0  0  0  0  0  0  0  0  0  0  0  0
    0.5211   -8.0319   26.7701 H   0  0  0  0  0  0  0  0  0  0  0  0
    3.5034   -8.1731   26.7182 H   0  0  0  0  0  0  0  0  0  0  0  0
    3.6695   -6.8616   29.4621 H   0  0  0  0  0  0  0  0  0  0  0  0
    5.5013   -6.9268   27.2480 H   0  0  0  0  0  0  0  0  0  0  0  0
    5.2062   -9.1948   28.2601 H   0  0  0  0  0  0  0  0  0  0  0  0
    6.2981   -5.8222   31.5500 H   0  0  0  0  0  0  0  0  0  0  0  0
    6.1476   -3.4188   35.1081 H   0  0  0  0  0  0  0  0  0  0  0  0
    7.2289   -2.2851   34.5424 H   0  0  0  0  0  0  0  0  0  0  0  0
    3.5990  -14.3651   35.1950 H   0  0  0  0  0  0  0  0  0  0  0  0
    5.0780  -15.1055   35.3917 H   0  0  0  0  0  0  0  0  0  0  0  0
    3.2797  -13.7190   30.3009 H   0  0  0  0  0  0  0  0  0  0  0  0
  1  3  1  0  0  0  0
  1 15  1  0  0  0  0
  1 21  1  0  0  0  0
  1 36  1  6  0  0  0
  2  4  1  0  0  0  0
  2 24  1  0  0  0  0
  2 29  1  0  0  0  0
  2 37  1  1  0  0  0
  3 11  1  0  0  0  0
  3 16  1  0  0  0  0
  3 38  1  6  0  0  0
  4 12  1  0  0  0  0
  4 39  1  0  0  0  0
  4 40  1  0  0  0  0
  5  6  1  0  0  0  0
  5 24  1  0  0  0  0
  5 33  2  0  0  0  0
  6  7  1  0  0  0  0
  6 35  1  0  0  0  0
  6 41  1  1  0  0  0
  7  8  1  0  0  0  0
  7 42  1  0  0  0  0
  7 43  1  0  0  0  0
  8 34  1  0  0  0  0
  8 44  1  0  0  0  0
  8 45  1  0  0  0  0
  9 10  1  0  0  0  0
  9 30  1  0  0  0  0
  9 46  1  0  0  0  0
  9 47  1  0  0  0  0
 10 31  1  0  0  0  0
 10 48  1  0  0  0  0
 10 49  1  0  0  0  0
 11 17  1  0  0  0  0
 11 18  1  0  0  0  0
 11 50  1  1  0  0  0
 12 25  1  0  0  0  0
 12 26  1  0  0  0  0
 12 51  1  1  0  0  0
 13 14  1  0  0  0  0
 13 32  1  0  0  0  0
 13 52  1  0  0  0  0
 13 53  1  0  0  0  0
 14 31  1  0  0  0  0
 14 54  1  0  0  0  0
 14 55  1  0  0  0  0
 15 26  1  0  0  0  0
 16 56  1  0  0  0  0
 16 57  1  0  0  0  0
 17 58  1  0  0  0  0
 18 19  1  0  0  0  0
 18 20  1  0  0  0  0
 18 59  1  6  0  0  0
 19 60  1  0  0  0  0
 20 21  1  0  0  0  0
 20 22  1  0  0  0  0
 20 61  1  1  0  0  0
 22 23  1  0  0  0  0
 22 62  1  0  0  0  0
 22 63  1  0  0  0  0
 23 64  1  0  0  0  0
 23 65  1  0  0  0  0
 24 66  1  0  0  0  0
 25 67  1  0  0  0  0
 25 68  1  0  0  0  0
 26 27  1  0  0  0  0
 26 69  1  6  0  0  0
 27 28  1  0  0  0  0
 27 29  1  0  0  0  0
 27 70  1  1  0  0  0
 28 71  1  0  0  0  0
 29 30  1  0  0  0  0
 29 72  1  6  0  0  0
 31 73  1  0  0  0  0
 32 74  1  0  0  0  0
 32 75  1  0  0  0  0
 34 76  1  0  0  0  0
 34 77  1  0  0  0  0
 35 78  1  0  0  0  0
M  END
$$$$
