2GDI_TPP_X_100
 OpenBabel10091713573D
Coordinates from PDB:2GDI:X:100 Model:1 without hydrogens
 45 46  0  0  0  0  0  0  0  0999 V2000
  -15.0330   -8.8960    0.5940 N   0  0  0  0  0  0  0  0  0  0  0  0
  -13.7570   -8.9510    0.1400 C   0  0  0  0  0  0  0  0  0  0  0  0
  -13.0200   -7.6790   -0.1810 C   0  0  0  0  0  0  0  0  0  0  0  0
  -13.1380  -10.1400   -0.0280 N   0  0  0  0  0  0  0  0  0  0  0  0
  -13.7800  -11.2950    0.2520 C   0  0  0  0  0  0  0  0  0  0  0  0
  -13.1400  -12.4760    0.0730 N   0  0  0  0  0  0  0  0  0  0  0  0
  -15.0840  -11.2580    0.7180 C   0  0  0  0  0  0  0  0  0  0  0  0
  -15.6980  -10.0230    0.8840 C   0  0  0  0  0  0  0  0  0  0  0  0
  -15.8230  -12.5420    1.0550 C   0  0  0  0  0  0  0  0  0  0  0  0
  -17.2640  -12.3040    1.1390 N   0  0  0  0  0  0  0  0  0  0  0  0
  -17.8580  -11.7740    2.2440 C   0  0  0  0  0  3  0  0  0  0  0  0
  -19.5710  -11.6270    2.0050 S   0  0  0  0  0  0  0  0  0  0  0  0
  -19.5120  -12.2620    0.4080 C   0  0  0  0  0  0  0  0  0  0  0  0
  -18.0960  -12.6040    0.1040 C   0  0  0  0  0  0  0  0  0  0  0  0
  -17.6430  -13.1960   -1.2040 C   0  0  0  0  0  0  0  0  0  0  0  0
  -20.8120  -12.3760   -0.3430 C   0  0  0  0  0  0  0  0  0  0  0  0
  -21.8150  -13.1160    0.5280 C   0  0  0  0  0  0  0  0  0  0  0  0
  -21.3740  -14.4610    0.6680 O   0  0  0  0  0  0  0  0  0  0  0  0
  -21.9480  -15.3960    1.8430 P   0  0  2  0  0  0  0  0  0  0  0  0
  -21.6240  -14.7390    3.1590 O   0  0  0  0  0  0  0  0  0  0  0  0
  -21.3980  -16.7730    1.6060 O   0  0  0  0  0  0  0  0  0  0  0  0
  -23.5550  -15.3510    1.6370 O   0  0  0  0  0  0  0  0  0  0  0  0
  -24.4540  -16.2920    0.6700 P   0  0  0  0  0  0  0  0  0  0  0  0
  -24.0310  -17.7080    0.9140 O   0  0  0  0  0  0  0  0  0  0  0  0
  -25.8550  -16.1050    1.1490 O   0  0  0  0  0  0  0  0  0  0  0  0
  -24.2400  -15.7710   -0.7250 O   0  0  0  0  0  0  0  0  0  0  0  0
  -13.6566   -6.8403    0.0091 H   0  0  0  0  0  0  0  0  0  0  0  0
  -12.7338   -7.6831   -1.2120 H   0  0  0  0  0  0  0  0  0  0  0  0
  -12.1455   -7.6091    0.4317 H   0  0  0  0  0  0  0  0  0  0  0  0
  -12.2132  -12.4883   -0.2588 H   0  0  0  0  0  0  0  0  0  0  0  0
  -13.6019  -13.3217    0.2748 H   0  0  0  0  0  0  0  0  0  0  0  0
  -16.6685   -9.9732    1.2314 H   0  0  0  0  0  0  0  0  0  0  0  0
  -15.4729  -12.9118    1.9960 H   0  0  0  0  0  0  0  0  0  0  0  0
  -15.6377  -13.2580    0.2818 H   0  0  0  0  0  0  0  0  0  0  0  0
  -17.3589  -11.4981    3.1041 H   0  0  0  0  0  0  0  0  0  0  0  0
  -16.5846  -13.3507   -1.1779 H   0  0  0  0  0  0  0  0  0  0  0  0
  -17.8860  -12.5259   -2.0020 H   0  0  0  0  0  0  0  0  0  0  0  0
  -18.1365  -14.1322   -1.3617 H   0  0  0  0  0  0  0  0  0  0  0  0
  -20.6561  -12.9178   -1.2524 H   0  0  0  0  0  0  0  0  0  0  0  0
  -21.1836  -11.4007   -0.5787 H   0  0  0  0  0  0  0  0  0  0  0  0
  -22.7797  -13.0973    0.0655 H   0  0  0  0  0  0  0  0  0  0  0  0
  -21.8871  -12.6486    1.4878 H   0  0  0  0  0  0  0  0  0  0  0  0
  -20.4370  -16.7643    1.7372 H   0  0  0  0  0  0  0  0  0  0  0  0
  -25.9385  -16.4563    2.0493 H   0  0  0  0  0  0  0  0  0  0  0  0
  -23.3173  -15.9166   -0.9865 H   0  0  0  0  0  0  0  0  0  0  0  0
  1  2  2  0  0  0  0
  1  8  1  0  0  0  0
  2  3  1  0  0  0  0
  2  4  1  0  0  0  0
  3 27  1  0  0  0  0
  3 28  1  0  0  0  0
  3 29  1  0  0  0  0
  4  5  2  0  0  0  0
  5  6  1  0  0  0  0
  5  7  1  0  0  0  0
  6 30  1  0  0  0  0
  6 31  1  0  0  0  0
  7  8  2  0  0  0  0
  7  9  1  0  0  0  0
  8 32  1  0  0  0  0
  9 10  1  0  0  0  0
  9 33  1  0  0  0  0
  9 34  1  0  0  0  0
 10 11  1  0  0  0  0
 10 14  1  0  0  0  0
 11 12  1  0  0  0  0
 11 35  1  0  0  0  0
 12 13  1  0  0  0  0
 13 14  2  0  0  0  0
 13 16  1  0  0  0  0
 14 15  1  0  0  0  0
 15 36  1  0  0  0  0
 15 37  1  0  0  0  0
 15 38  1  0  0  0  0
 16 17  1  0  0  0  0
 16 39  1  0  0  0  0
 16 40  1  0  0  0  0
 17 18  1  0  0  0  0
 17 41  1  0  0  0  0
 17 42  1  0  0  0  0
 18 19  1  0  0  0  0
 19 20  2  1  0  0  0
 19 21  1  0  0  0  0
 19 22  1  0  0  0  0
 21 43  1  0  0  0  0
 22 23  1  0  0  0  0
 23 24  2  0  0  0  0
 23 25  1  0  0  0  0
 23 26  1  0  0  0  0
 25 44  1  0  0  0  0
 26 45  1  0  0  0  0
M  END
$$$$
