ligands/ligand.pdb
 OpenBabel10091713573D

 69 71  0  0  1  0  0  0  0  0999 V2000
   -8.1980    0.4060   -7.7820 C   0  0  2  0  0  0  0  0  0  0  0  0
   -7.6150    1.7580   -8.1810 C   0  0  1  0  0  0  0  0  0  0  0  0
   -6.9670    1.6310   -9.5600 C   0  0  2  0  0  0  0  0  0  0  0  0
   -5.9290    0.5010   -9.5740 C   0  0  1  0  0  0  0  0  0  0  0  0
   -6.5550   -0.7920   -9.0400 C   0  0  1  0  0  0  0  0  0  0  0  0
   -5.5740   -1.9410   -8.8740 C   0  0  0  0  0  0  0  0  0  0  0  0
   -8.6460    2.7410   -8.2200 O   0  0  0  0  0  0  0  0  0  0  0  0
   -6.3150    2.8510  -10.1330 N   0  0  0  0  0  0  0  0  0  0  0  0
   -5.4770    0.3050  -10.9080 O   0  0  0  0  0  0  0  0  0  0  0  0
   -7.1560   -0.5510   -7.7520 O   0  0  0  0  0  0  0  0  0  0  0  0
   -6.2280   -3.0950   -8.3560 O   0  0  0  0  0  0  0  0  0  0  0  0
  -10.7210   -4.7500   -6.7390 C   0  0  2  0  0  0  0  0  0  0  0  0
   -9.5210   -5.6580   -7.0280 C   0  0  1  0  0  0  0  0  0  0  0  0
   -9.9770   -7.0200   -7.5520 C   0  0  0  0  0  0  0  0  0  0  0  0
  -10.9900   -7.6080   -6.5830 C   0  0  1  0  0  0  0  0  0  0  0  0
  -12.1610   -6.6510   -6.4430 C   0  0  1  0  0  0  0  0  0  0  0  0
  -13.2130   -7.1870   -5.4890 C   0  0  0  0  0  0  0  0  0  0  0  0
   -8.6370   -5.0070   -8.0470 N   0  0  0  0  0  0  0  0  0  0  0  0
  -13.6660   -8.5270   -6.0010 N   0  0  0  0  0  0  0  0  0  0  0  0
  -11.4470   -8.8690   -7.0510 O   0  0  0  0  0  0  0  0  0  0  0  0
  -11.6900   -5.3970   -5.9210 O   0  0  0  0  0  0  0  0  0  0  0  0
  -11.5570   -0.1590   -9.0820 C   0  0  2  0  0  0  0  0  0  0  0  0
  -12.8250   -1.0000   -8.8820 C   0  0  0  0  0  0  0  0  0  0  0  0
  -12.5470   -2.4970   -8.9870 C   0  0  1  0  0  0  0  0  0  0  0  0
  -11.4830   -2.8620   -7.9610 C   0  0  2  0  0  0  0  0  0  0  0  0
  -10.1770   -2.1400   -8.3020 C   0  0  1  0  0  0  0  0  0  0  0  0
  -10.3670   -0.6150   -8.2230 C   0  0  1  0  0  0  0  0  0  0  0  0
  -11.8340    1.2900   -8.8010 N   0  0  0  0  0  0  0  0  0  0  0  0
  -13.8010   -3.2930   -8.7820 N   0  0  0  0  0  0  0  0  0  0  0  0
   -9.1590   -2.5570   -7.4010 O   0  0  0  0  0  0  0  0  0  0  0  0
  -11.2680   -4.2850   -7.9420 O   0  0  0  0  0  0  0  0  0  0  0  0
   -9.1840    0.0500   -8.7130 O   0  0  0  0  0  0  0  0  0  0  0  0
   -8.6440    0.4532   -6.8105 H   0  0  0  0  0  0  0  0  0  0  0  0
   -6.8814    2.0588   -7.4625 H   0  0  0  0  0  0  0  0  0  0  0  0
   -7.8117    1.4328  -10.1862 H   0  0  0  0  0  0  0  0  0  0  0  0
   -5.1022    0.7652   -8.9483 H   0  0  0  0  0  0  0  0  0  0  0  0
   -7.2740   -1.0797   -9.7784 H   0  0  0  0  0  0  0  0  0  0  0  0
   -4.7984   -1.6450   -8.1990 H   0  0  0  0  0  0  0  0  0  0  0  0
   -5.1630   -2.1815   -9.8322 H   0  0  0  0  0  0  0  0  0  0  0  0
   -9.3180    2.4792   -8.8686 H   0  0  0  0  0  0  0  0  0  0  0  0
   -5.4961    3.0927   -9.5750 H   0  0  0  0  0  0  0  0  0  0  0  0
   -6.9762    3.6275  -10.1205 H   0  0  0  0  0  0  0  0  0  0  0  0
   -6.2288    0.0658  -11.4723 H   0  0  0  0  0  0  0  0  0  0  0  0
   -6.6054   -2.8897   -7.4863 H   0  0  0  0  0  0  0  0  0  0  0  0
  -10.3803   -3.9039   -6.1797 H   0  0  0  0  0  0  0  0  0  0  0  0
   -8.9835   -5.8072   -6.1149 H   0  0  0  0  0  0  0  0  0  0  0  0
   -9.1343   -7.6746   -7.6313 H   0  0  0  0  0  0  0  0  0  0  0  0
  -10.4239   -6.9052   -8.5174 H   0  0  0  0  0  0  0  0  0  0  0  0
  -10.5253   -7.7489   -5.6295 H   0  0  0  0  0  0  0  0  0  0  0  0
  -12.5981   -6.5314   -7.4123 H   0  0  0  0  0  0  0  0  0  0  0  0
  -14.0437   -6.5138   -5.4492 H   0  0  0  0  0  0  0  0  0  0  0  0
  -12.8065   -7.2837   -4.5040 H   0  0  0  0  0  0  0  0  0  0  0  0
   -9.1594   -4.8698   -8.9123 H   0  0  0  0  0  0  0  0  0  0  0  0
   -7.8300   -5.6039   -8.2280 H   0  0  0  0  0  0  0  0  0  0  0  0
  -14.0507   -8.4200   -6.9396 H   0  0  0  0  0  0  0  0  0  0  0  0
  -14.3828   -8.9034   -5.3806 H   0  0  0  0  0  0  0  0  0  0  0  0
  -11.8716   -8.7583   -7.9161 H   0  0  0  0  0  0  0  0  0  0  0  0
  -11.2807   -0.2994  -10.1061 H   0  0  0  0  0  0  0  0  0  0  0  0
  -13.5398   -0.7290   -9.6307 H   0  0  0  0  0  0  0  0  0  0  0  0
  -13.1975   -0.8035   -7.8984 H   0  0  0  0  0  0  0  0  0  0  0  0
  -12.1904   -2.7316   -9.9682 H   0  0  0  0  0  0  0  0  0  0  0  0
  -11.8165   -2.5575   -6.9910 H   0  0  0  0  0  0  0  0  0  0  0  0
   -9.8897   -2.3891   -9.3022 H   0  0  0  0  0  0  0  0  0  0  0  0
  -10.5492   -0.3634   -7.1991 H   0  0  0  0  0  0  0  0  0  0  0  0
  -12.0951    1.4025   -7.8214 H   0  0  0  0  0  0  0  0  0  0  0  0
  -12.5978    1.6117   -9.3956 H   0  0  0  0  0  0  0  0  0  0  0  0
  -14.1784   -3.1000   -7.8542 H   0  0  0  0  0  0  0  0  0  0  0  0
  -13.5894   -4.2875   -8.8628 H   0  0  0  0  0  0  0  0  0  0  0  0
   -9.4181   -2.3318   -6.4938 H   0  0  0  0  0  0  0  0  0  0  0  0
  1  2  1  0  0  0  0
  1 10  1  0  0  0  0
  1 32  1  0  0  0  0
  1 33  1  1  0  0  0
  2  3  1  0  0  0  0
  2  7  1  0  0  0  0
  2 34  1  1  0  0  0
  3  4  1  0  0  0  0
  3  8  1  0  0  0  0
  3 35  1  6  0  0  0
  4  5  1  0  0  0  0
  4  9  1  0  0  0  0
  4 36  1  1  0  0  0
  5  6  1  0  0  0  0
  5 10  1  0  0  0  0
  5 37  1  6  0  0  0
  6 11  1  0  0  0  0
  6 38  1  0  0  0  0
  6 39  1  0  0  0  0
  7 40  1  0  0  0  0
  8 41  1  0  0  0  0
  8 42  1  0  0  0  0
  9 43  1  0  0  0  0
 11 44  1  0  0  0  0
 12 13  1  0  0  0  0
 12 21  1  0  0  0  0
 12 31  1  0  0  0  0
 12 45  1  1  0  0  0
 13 14  1  0  0  0  0
 13 18  1  0  0  0  0
 13 46  1  1  0  0  0
 14 15  1  0  0  0  0
 14 47  1  0  0  0  0
 14 48  1  0  0  0  0
 15 16  1  0  0  0  0
 15 20  1  0  0  0  0
 15 49  1  1  0  0  0
 16 17  1  0  0  0  0
 16 21  1  0  0  0  0
 16 50  1  6  0  0  0
 17 19  1  0  0  0  0
 17 51  1  0  0  0  0
 17 52  1  0  0  0  0
 18 53  1  0  0  0  0
 18 54  1  0  0  0  0
 19 55  1  0  0  0  0
 19 56  1  0  0  0  0
 20 57  1  0  0  0  0
 22 23  1  0  0  0  0
 22 27  1  0  0  0  0
 22 28  1  0  0  0  0
 22 58  1  6  0  0  0
 23 24  1  0  0  0  0
 23 59  1  0  0  0  0
 23 60  1  0  0  0  0
 24 25  1  0  0  0  0
 24 29  1  0  0  0  0
 24 61  1  6  0  0  0
 25 26  1  0  0  0  0
 25 31  1  0  0  0  0
 25 62  1  1  0  0  0
 26 27  1  0  0  0  0
 26 30  1  0  0  0  0
 26 63  1  6  0  0  0
 27 32  1  0  0  0  0
 27 64  1  1  0  0  0
 28 65  1  0  0  0  0
 28 66  1  0  0  0  0
 29 67  1  0  0  0  0
 29 68  1  0  0  0  0
 30 69  1  0  0  0  0
M  END
$$$$
