3WRU_SJP_A_101
 OpenBabel03221817313D

 98101  0  0  1  0  0  0  0  0999 V2000
    4.1361  -11.5619    9.7803 C   0  0  2  0  0  0  0  0  0  0  0  0
    4.7143  -10.6446    9.6379 H   0  0  0  0  0  0  0  0  0  0  0  0
    3.9882  -11.8020   11.3167 C   0  0  1  0  0  0  0  0  0  0  0  0
    4.9848  -11.7860   11.7717 H   0  0  0  0  0  0  0  0  0  0  0  0
    3.1278  -10.6784   11.9196 C   0  0  0  0  0  0  0  0  0  0  0  0
    1.8264  -10.4659   11.1447 C   0  0  0  0  0  0  0  0  0  0  0  0
    2.0710  -10.3165    9.6413 C   0  0  1  0  0  0  0  0  0  0  0  0
    1.1000  -10.4084    9.1378 H   0  0  0  0  0  0  0  0  0  0  0  0
    2.6803   -8.9620    9.1953 C   0  0  0  0  0  0  0  0  0  0  0  0
    1.8473   -7.7888    9.4457 N   0  0  0  0  0  0  0  0  0  0  0  0
    2.8475  -11.4253    9.1750 O   0  0  0  0  0  0  0  0  0  0  0  0
    3.4027  -13.1169   11.6461 N   0  0  0  0  0  0  0  0  0  0  0  0
    4.9029  -12.6274    9.1757 O   0  0  0  0  0  0  0  0  0  0  0  0
    4.8217  -12.6277    7.7337 C   0  0  1  0  0  0  0  0  0  0  0  0
    3.7663  -12.5687    7.4694 H   0  0  0  0  0  0  0  0  0  0  0  0
    5.6257  -11.4603    7.1060 C   0  0  1  0  0  0  0  0  0  0  0  0
    5.3512  -10.5083    7.5766 H   0  0  0  0  0  0  0  0  0  0  0  0
    7.1419  -11.6620    7.3623 C   0  0  2  0  0  0  0  0  0  0  0  0
    7.6918  -10.8344    6.9008 H   0  0  0  0  0  0  0  0  0  0  0  0
    7.6609  -13.0016    6.7752 C   0  0  1  0  0  0  0  0  0  0  0  0
    8.6966  -13.1459    7.1127 H   0  0  0  0  0  0  0  0  0  0  0  0
    6.8275  -14.1792    7.3119 C   0  0  0  0  0  0  0  0  0  0  0  0
    5.3021  -14.0029    7.1851 C   0  0  2  0  0  0  0  0  0  0  0  0
    4.8375  -14.7876    7.7965 H   0  0  0  0  0  0  0  0  0  0  0  0
    4.8334  -14.2320    5.8066 N   0  0  0  0  0  0  0  0  0  0  0  0
    7.6993  -13.0112    5.3086 N   0  0  0  0  0  0  0  0  0  0  0  0
    8.5521  -12.2181    4.5637 C   0  0  0  0  0  0  0  0  0  0  0  0
    9.5070  -11.6284    5.0696 O   0  0  0  0  0  0  0  0  0  0  0  0
    8.1617  -12.0606    3.0679 C   0  0  2  0  0  0  0  0  0  0  0  0
    7.3176  -11.3597    3.0670 H   0  0  0  0  0  0  0  0  0  0  0  0
    7.6919  -13.3698    2.4196 C   0  0  1  0  0  0  0  0  0  0  0  0
    7.3833  -13.1650    1.3867 H   0  0  0  0  0  0  0  0  0  0  0  0
    8.7495  -14.4854    2.4001 C   0  0  0  0  0  0  0  0  0  0  0  0
    9.9570  -14.1458    1.6347 N   0  0  0  0  0  0  0  0  0  0  0  0
    6.5834  -13.8310    3.0758 F   0  0  0  0  0  0  0  0  0  0  0  0
    9.1799  -11.4560    2.2691 O   0  0  0  0  0  0  0  0  0  0  0  0
    7.4247  -11.5908    8.7718 O   0  0  0  0  0  0  0  0  0  0  0  0
    5.4051  -11.3686    5.6890 O   0  0  0  0  0  0  0  0  0  0  0  0
    4.1901  -10.7144    5.3394 C   0  0  1  0  0  0  0  0  0  0  0  0
    4.1101   -9.7566    5.8683 H   0  0  0  0  0  0  0  0  0  0  0  0
    4.1567  -10.5207    3.8234 C   0  0  1  0  0  0  0  0  0  0  0  0
    4.4194  -11.4707    3.3391 H   0  0  0  0  0  0  0  0  0  0  0  0
    2.6682  -10.2457    3.6217 C   0  0  1  0  0  0  0  0  0  0  0  0
    2.2928  -10.4783    2.6286 H   0  0  0  0  0  0  0  0  0  0  0  0
    2.0718  -11.3028    4.5671 C   0  0  1  0  0  0  0  0  0  0  0  0
    1.1451  -10.9744    5.0484 H   0  0  0  0  0  0  0  0  0  0  0  0
    1.8401  -12.6296    3.8191 C   0  0  0  0  0  0  0  0  0  0  0  0
    1.3026  -13.6140    4.6949 O   0  0  0  0  0  0  0  0  0  0  0  0
    3.0409  -11.5190    5.6208 O   0  0  0  0  0  0  0  0  0  0  0  0
    2.2246   -8.9429    4.0184 O   0  0  0  0  0  0  0  0  0  0  0  0
    2.5933   -7.8205    3.1933 C   0  0  2  0  0  0  0  0  0  0  0  0
    1.9820   -6.9921    3.5750 H   0  0  0  0  0  0  0  0  0  0  0  0
    2.2564   -7.9563    1.6560 C   0  0  1  0  0  0  0  0  0  0  0  0
    1.1649   -7.9747    1.5534 H   0  0  0  0  0  0  0  0  0  0  0  0
    2.8338   -6.7566    0.9040 C   0  0  0  0  0  0  0  0  0  0  0  0
    4.3157   -6.6093    1.2236 C   0  0  0  0  0  0  0  0  0  0  0  0
    4.4737   -6.3541    2.7209 C   0  0  2  0  0  0  0  0  0  0  0  0
    3.9265   -5.4467    3.0114 H   0  0  0  0  0  0  0  0  0  0  0  0
    5.9602   -6.1812    3.1093 C   0  0  0  0  0  0  0  0  0  0  0  0
    6.6212   -5.0777    2.4094 N   0  0  0  0  0  0  0  0  0  0  0  0
    3.9511   -7.4578    3.4755 O   0  0  0  0  0  0  0  0  0  0  0  0
    2.7588   -9.1642    0.9685 N   0  0  0  0  0  0  0  0  0  0  0  0
    5.0794   -9.5831    3.3195 O   0  0  0  0  0  0  0  0  0  0  0  0
    3.7041   -9.7450   11.9098 H   0  0  0  0  0  0  0  0  0  0  0  0
    2.8986  -10.8838   12.9718 H   0  0  0  0  0  0  0  0  0  0  0  0
    1.2756   -9.6095   11.5470 H   0  0  0  0  0  0  0  0  0  0  0  0
    1.1876  -11.3453   11.3009 H   0  0  0  0  0  0  0  0  0  0  0  0
    3.6494   -8.7914    9.6728 H   0  0  0  0  0  0  0  0  0  0  0  0
    2.8905   -9.0129    8.1200 H   0  0  0  0  0  0  0  0  0  0  0  0
    1.6955   -7.6592   10.4441 H   0  0  0  0  0  0  0  0  0  0  0  0
    0.9282   -7.9154    9.0229 H   0  0  0  0  0  0  0  0  0  0  0  0
    2.5472  -13.2507   11.1054 H   0  0  0  0  0  0  0  0  0  0  0  0
    3.1557  -13.1632   12.6319 H   0  0  0  0  0  0  0  0  0  0  0  0
    7.0594  -14.3103    8.3771 H   0  0  0  0  0  0  0  0  0  0  0  0
    7.1385  -15.1137    6.8258 H   0  0  0  0  0  0  0  0  0  0  0  0
    5.3431  -14.9971    5.3644 H   0  0  0  0  0  0  0  0  0  0  0  0
    4.9521  -13.3854    5.2491 H   0  0  0  0  0  0  0  0  0  0  0  0
    6.8711  -13.3482    4.8314 H   0  0  0  0  0  0  0  0  0  0  0  0
    8.3049  -15.3940    1.9799 H   0  0  0  0  0  0  0  0  0  0  0  0
    9.0346  -14.7397    3.4267 H   0  0  0  0  0  0  0  0  0  0  0  0
    9.7694  -14.2701    0.6414 H   0  0  0  0  0  0  0  0  0  0  0  0
   10.6877  -14.8226    1.8572 H   0  0  0  0  0  0  0  0  0  0  0  0
    9.8903  -12.1267    2.1841 H   0  0  0  0  0  0  0  0  0  0  0  0
    6.8112  -12.1922    9.2364 H   0  0  0  0  0  0  0  0  0  0  0  0
    1.1263  -12.4860    2.9990 H   0  0  0  0  0  0  0  0  0  0  0  0
    2.7646  -13.0323    3.3981 H   0  0  0  0  0  0  0  0  0  0  0  0
    1.9317  -13.6709    5.4477 H   0  0  0  0  0  0  0  0  0  0  0  0
    2.3011   -5.8448    1.1971 H   0  0  0  0  0  0  0  0  0  0  0  0
    2.6923   -6.8620   -0.1783 H   0  0  0  0  0  0  0  0  0  0  0  0
    4.7330   -5.7922    0.6278 H   0  0  0  0  0  0  0  0  0  0  0  0
    4.8618   -7.5184    0.9434 H   0  0  0  0  0  0  0  0  0  0  0  0
    6.5111   -7.1109    2.9248 H   0  0  0  0  0  0  0  0  0  0  0  0
    6.0223   -6.0091    4.1898 H   0  0  0  0  0  0  0  0  0  0  0  0
    6.8853   -5.3867    1.4730 H   0  0  0  0  0  0  0  0  0  0  0  0
    7.5089   -4.8788    2.8805 H   0  0  0  0  0  0  0  0  0  0  0  0
    3.7464   -9.3040    1.2001 H   0  0  0  0  0  0  0  0  0  0  0  0
    2.6982   -9.0593   -0.0410 H   0  0  0  0  0  0  0  0  0  0  0  0
    4.8640   -8.7188    3.7273 H   0  0  0  0  0  0  0  0  0  0  0  0
  1  3  1  1  0  0  0
  1 11  1  0  0  0  0
  1 13  1  0  0  0  0
  1  2  1  0  0  0  0
  3  5  1  0  0  0  0
  3 12  1  0  0  0  0
  3  4  1  1  0  0  0
  5  6  1  0  0  0  0
  5 64  1  0  0  0  0
  5 65  1  0  0  0  0
  6  7  1  0  0  0  0
  6 66  1  0  0  0  0
  6 67  1  0  0  0  0
  7 11  1  0  0  0  0
  7  9  1  0  0  0  0
  7  8  1  6  0  0  0
  9 10  1  0  0  0  0
  9 68  1  0  0  0  0
  9 69  1  0  0  0  0
 10 70  1  0  0  0  0
 10 71  1  0  0  0  0
 12 72  1  0  0  0  0
 12 73  1  0  0  0  0
 13 14  1  0  0  0  0
 14 15  1  0  0  0  0
 14 16  1  6  0  0  0
 16 18  1  1  0  0  0
 16 38  1  0  0  0  0
 16 17  1  0  0  0  0
 18 20  1  6  0  0  0
 18 37  1  0  0  0  0
 18 19  1  0  0  0  0
 20 21  1  1  0  0  0
 20 22  1  0  0  0  0
 20 26  1  0  0  0  0
 22 23  1  0  0  0  0
 22 74  1  0  0  0  0
 22 75  1  0  0  0  0
 23 24  1  0  0  0  0
 23 14  1  1  0  0  0
 23 25  1  0  0  0  0
 25 76  1  0  0  0  0
 25 77  1  0  0  0  0
 26 27  1  0  0  0  0
 26 78  1  0  0  0  0
 27 28  2  0  0  0  0
 29 31  1  0  0  0  0
 29 36  1  0  0  0  0
 29 30  1  6  0  0  0
 29 27  1  0  0  0  0
 31 32  1  6  0  0  0
 31 33  1  0  0  0  0
 31 35  1  0  0  0  0
 33 34  1  0  0  0  0
 33 79  1  0  0  0  0
 33 80  1  0  0  0  0
 34 81  1  0  0  0  0
 34 82  1  0  0  0  0
 36 83  1  0  0  0  0
 37 84  1  0  0  0  0
 38 39  1  0  0  0  0
 39 40  1  0  0  0  0
 39 41  1  6  0  0  0
 39 49  1  0  0  0  0
 41 43  1  6  0  0  0
 41 63  1  0  0  0  0
 41 42  1  0  0  0  0
 43 44  1  0  0  0  0
 43 45  1  1  0  0  0
 43 50  1  0  0  0  0
 45 49  1  0  0  0  0
 45 47  1  0  0  0  0
 45 46  1  1  0  0  0
 47 48  1  0  0  0  0
 47 85  1  0  0  0  0
 47 86  1  0  0  0  0
 48 87  1  0  0  0  0
 51 53  1  6  0  0  0
 51 61  1  0  0  0  0
 51 52  1  0  0  0  0
 51 50  1  0  0  0  0
 53 55  1  0  0  0  0
 53 62  1  0  0  0  0
 53 54  1  6  0  0  0
 55 56  1  0  0  0  0
 55 88  1  0  0  0  0
 55 89  1  0  0  0  0
 56 57  1  0  0  0  0
 56 90  1  0  0  0  0
 56 91  1  0  0  0  0
 57 58  1  1  0  0  0
 57 59  1  0  0  0  0
 57 61  1  0  0  0  0
 59 60  1  0  0  0  0
 59 92  1  0  0  0  0
 59 93  1  0  0  0  0
 60 94  1  0  0  0  0
 60 95  1  0  0  0  0
 62 96  1  0  0  0  0
 62 97  1  0  0  0  0
 63 98  1  0  0  0  0
M  END
$$$$
