ligand.pdb
 OpenBabel03221817273D

 51 53  0  0  1  0  0  0  0  0999 V2000
    8.6451   -0.5355    2.2647 N   0  0  0  0  0  0  0  0  0  0  0  0
    8.6332   -0.0558    0.8629 C   0  0  2  0  0  0  0  0  0  0  0  0
    9.1562   -0.7906    0.2450 H   0  0  0  0  0  0  0  0  0  0  0  0
    9.3771    1.2897    0.7975 C   0  0  0  0  0  0  0  0  0  0  0  0
    8.8729    2.3781    1.0184 O   0  0  0  0  0  0  0  0  0  0  0  0
   10.7107    1.1380    0.5759 O   0  0  0  0  0  0  0  0  0  0  0  0
    7.1847    0.0614    0.3732 C   0  0  0  0  0  0  0  0  0  0  0  0
    7.0218    0.5438   -1.0627 C   0  0  0  0  0  0  0  0  0  0  0  0
    7.8106   -0.4135   -2.3358 S   0  0  2  0  0  0  0  0  0  0  0  0
    9.1481   -0.4726   -2.2128 H   0  0  0  0  0  0  0  0  0  0  0  0
    7.3572    0.4451   -3.8169 C   0  0  0  0  0  0  0  0  0  0  0  0
    7.0881   -2.0478   -2.4430 C   0  0  0  0  0  0  0  0  0  0  0  0
    7.5731   -2.8697   -3.6514 C   0  0  1  0  0  0  0  0  0  0  0  0
    7.3023   -2.3498   -4.5794 H   0  0  0  0  0  0  0  0  0  0  0  0
    9.0031   -3.0324   -3.6541 O   0  0  0  0  0  0  0  0  0  0  0  0
    9.2758   -4.2076   -4.4585 C   0  0  2  0  0  0  0  0  0  0  0  0
    9.2310   -3.9369   -5.5219 H   0  0  0  0  0  0  0  0  0  0  0  0
    8.1702   -5.1990   -4.0780 C   0  0  1  0  0  0  0  0  0  0  0  0
    8.4687   -5.8106   -3.2203 H   0  0  0  0  0  0  0  0  0  0  0  0
    7.0039   -4.2959   -3.6541 C   0  0  2  0  0  0  0  0  0  0  0  0
    6.6672   -4.5924   -2.6552 H   0  0  0  0  0  0  0  0  0  0  0  0
    5.8822   -4.3934   -4.5277 O   0  0  0  0  0  0  0  0  0  0  0  0
    7.7833   -6.0824   -5.1353 O   0  0  0  0  0  0  0  0  0  0  0  0
   10.6427   -4.6302   -4.2041 N   0  0  0  0  0  0  0  0  0  0  0  0
   11.6708   -3.7743   -3.8875 C   0  0  0  0  0  0  0  0  0  0  0  0
   12.8175   -4.4013   -3.7482 N   0  0  0  0  0  0  0  0  0  0  0  0
   12.5306   -5.7177   -4.0128 C   0  0  0  0  0  0  0  0  0  0  0  0
   13.3479   -6.8613   -4.0319 C   0  0  0  0  0  0  0  0  0  0  0  0
   14.7040   -6.8230   -3.7293 N   0  0  0  0  0  0  0  0  0  0  0  0
   12.7878   -8.0430   -4.3724 N   0  0  0  0  0  0  0  0  0  0  0  0
   11.4660   -8.0645   -4.6589 C   0  0  0  0  0  0  0  0  0  0  0  0
   10.5812   -7.0348   -4.6694 N   0  0  0  0  0  0  0  0  0  0  0  0
   11.1887   -5.8839   -4.3274 C   0  0  0  0  0  0  0  0  0  0  0  0
    8.1268    0.1369    2.8410 H   0  0  0  0  0  0  0  0  0  0  0  0
    9.5937   -0.5169    2.6381 H   0  0  0  0  0  0  0  0  0  0  0  0
   10.9832    0.2086    0.4520 H   0  0  0  0  0  0  0  0  0  0  0  0
    6.6447    0.7742    1.0149 H   0  0  0  0  0  0  0  0  0  0  0  0
    6.6765   -0.9028    0.4911 H   0  0  0  0  0  0  0  0  0  0  0  0
    7.4222    1.5584   -1.1657 H   0  0  0  0  0  0  0  0  0  0  0  0
    5.9572    0.5907   -1.3142 H   0  0  0  0  0  0  0  0  0  0  0  0
    7.8754   -0.0034   -4.6634 H   0  0  0  0  0  0  0  0  0  0  0  0
    7.6552    1.4902   -3.7064 H   0  0  0  0  0  0  0  0  0  0  0  0
    6.2744    0.3786   -3.9420 H   0  0  0  0  0  0  0  0  0  0  0  0
    6.0017   -1.9202   -2.4799 H   0  0  0  0  0  0  0  0  0  0  0  0
    7.3606   -2.5472   -1.5084 H   0  0  0  0  0  0  0  0  0  0  0  0
    5.9012   -5.3056   -4.8850 H   0  0  0  0  0  0  0  0  0  0  0  0
    8.5476   -6.6786   -5.2896 H   0  0  0  0  0  0  0  0  0  0  0  0
   11.5183   -2.7077   -3.7724 H   0  0  0  0  0  0  0  0  0  0  0  0
   15.1072   -5.8952   -3.8110 H   0  0  0  0  0  0  0  0  0  0  0  0
   15.2189   -7.5965   -4.1271 H   0  0  0  0  0  0  0  0  0  0  0  0
   11.0664   -9.0449   -4.9112 H   0  0  0  0  0  0  0  0  0  0  0  0
  1 34  1  0  0  0  0
  1 35  1  0  0  0  0
  2  4  1  0  0  0  0
  2  7  1  0  0  0  0
  2  3  1  6  0  0  0
  2  1  1  0  0  0  0
  4  5  2  0  0  0  0
  4  6  1  0  0  0  0
  6 36  1  0  0  0  0
  7  8  1  0  0  0  0
  7 37  1  0  0  0  0
  7 38  1  0  0  0  0
  8 39  1  0  0  0  0
  8 40  1  0  0  0  0
  9 11  1  0  0  0  0
  9 12  1  0  0  0  0
  9 10  1  1  0  0  0
  9  8  1  0  0  0  0
 11 41  1  0  0  0  0
 11 42  1  0  0  0  0
 11 43  1  0  0  0  0
 12 13  1  0  0  0  0
 12 44  1  0  0  0  0
 12 45  1  0  0  0  0
 13 14  1  0  0  0  0
 13 15  1  0  0  0  0
 13 20  1  1  0  0  0
 15 16  1  0  0  0  0
 16 18  1  1  0  0  0
 16 24  1  0  0  0  0
 16 17  1  0  0  0  0
 18 19  1  0  0  0  0
 18 20  1  1  0  0  0
 18 23  1  0  0  0  0
 20 21  1  1  0  0  0
 20 22  1  0  0  0  0
 22 46  1  0  0  0  0
 23 47  1  0  0  0  0
 24 25  1  0  0  0  0
 24 33  1  0  0  0  0
 25 26  2  0  0  0  0
 25 48  1  0  0  0  0
 26 27  1  0  0  0  0
 27 28  2  0  0  0  0
 27 33  1  0  0  0  0
 28 29  1  0  0  0  0
 28 30  1  0  0  0  0
 29 49  1  0  0  0  0
 29 50  1  0  0  0  0
 30 31  2  0  0  0  0
 31 32  1  0  0  0  0
 31 51  1  0  0  0  0
 32 33  2  0  0  0  0
M  END
$$$$
