4LX5_29G_A_501
 OpenBabel03221817313D

 18 19  0  0  0  0  0  0  0  0999 V2000
    1.1201    0.0400    0.1929 N   0  0  0  0  0  0  0  0  0  0  0  0
    2.5142    0.1143    0.1137 C   0  0  0  0  0  0  0  0  0  0  0  0
    3.1553   -1.0557    0.1342 N   0  0  0  0  0  0  0  0  0  0  0  0
    4.4880   -1.0049    0.1172 C   0  0  0  0  0  0  0  0  0  0  0  0
    5.2106    0.1083    0.0252 N   0  0  0  0  0  0  0  0  0  0  0  0
    4.5722    1.2701    0.0158 C   0  0  0  0  0  0  0  0  0  0  0  0
    3.1926    1.3294    0.0706 C   0  0  0  0  0  0  0  0  0  0  0  0
    2.6266    2.5990    0.0913 C   0  0  0  0  0  0  0  0  0  0  0  0
    3.3464    3.7311    0.0434 N   0  0  0  0  0  0  0  0  0  0  0  0
    4.6702    3.5545   -0.0168 C   0  0  0  0  0  0  0  0  0  0  0  0
    5.3089    2.3778   -0.0388 N   0  0  0  0  0  0  0  0  0  0  0  0
    5.1705   -2.2004    0.1782 N   0  0  0  0  0  0  0  0  0  0  0  0
    0.8654   -0.9465    0.1886 H   0  0  0  0  0  0  0  0  0  0  0  0
    0.6516    0.5454   -0.5505 H   0  0  0  0  0  0  0  0  0  0  0  0
    1.5517    2.7413    0.1571 H   0  0  0  0  0  0  0  0  0  0  0  0
    5.2867    4.4463   -0.0472 H   0  0  0  0  0  0  0  0  0  0  0  0
    4.6058   -2.9688   -0.1515 H   0  0  0  0  0  0  0  0  0  0  0  0
    6.1058   -2.1013   -0.1909 H   0  0  0  0  0  0  0  0  0  0  0  0
  1  2  1  0  0  0  0
  1 13  1  0  0  0  0
  1 14  1  0  0  0  0
  2  3  2  0  0  0  0
  2  7  1  0  0  0  0
  3  4  1  0  0  0  0
  4  5  2  0  0  0  0
  4 12  1  0  0  0  0
  5  6  1  0  0  0  0
  6  7  2  0  0  0  0
  6 11  1  0  0  0  0
  7  8  1  0  0  0  0
  8  9  2  0  0  0  0
  8 15  1  0  0  0  0
  9 10  1  0  0  0  0
 10 11  2  0  0  0  0
 10 16  1  0  0  0  0
 12 17  1  0  0  0  0
 12 18  1  0  0  0  0
M  END
$$$$
