1XPF_SPM_A_108
 OpenBabel03221817013D

 40 39  0  0  0  0  0  0  0  0999 V2000
    0.9467    0.0882   -0.0062 N   0  0  0  0  0  0  0  0  0  0  0  0
    2.4052    0.0956   -0.0052 C   0  0  0  0  0  0  0  0  0  0  0  0
    2.9484   -0.8416    1.0726 C   0  0  0  0  0  0  0  0  0  0  0  0
    4.4783   -0.8375    1.0659 C   0  0  0  0  0  0  0  0  0  0  0  0
    4.9887   -1.7273    2.1099 N   0  0  0  0  0  0  0  0  0  0  0  0
    6.4515   -1.7430    2.1124 C   0  0  0  0  0  0  0  0  0  0  0  0
    6.9547   -2.6893    3.2023 C   0  0  0  0  0  0  0  0  0  0  0  0
    8.4841   -2.7152    3.2428 C   0  0  0  0  0  0  0  0  0  0  0  0
    8.9876   -3.6620    4.3321 C   0  0  0  0  0  0  0  0  0  0  0  0
   10.4507   -3.6752    4.3364 N   0  0  0  0  0  0  0  0  0  0  0  0
   10.9608   -4.5675    5.3780 C   0  0  0  0  0  0  0  0  0  0  0  0
   12.4908   -4.5605    5.3743 C   0  0  0  0  0  0  0  0  0  0  0  0
   13.0339   -5.5016    6.4487 C   0  0  0  0  0  0  0  0  0  0  0  0
   14.4924   -5.4903    6.4537 N   0  0  0  0  0  0  0  0  0  0  0  0
    0.6051    0.7672   -0.6852 H   0  0  0  0  0  0  0  0  0  0  0  0
    0.6024    0.3965    0.9028 H   0  0  0  0  0  0  0  0  0  0  0  0
    2.7619    1.1170    0.1671 H   0  0  0  0  0  0  0  0  0  0  0  0
    2.7620   -0.2197   -0.9916 H   0  0  0  0  0  0  0  0  0  0  0  0
    2.5779   -1.8604    0.8993 H   0  0  0  0  0  0  0  0  0  0  0  0
    2.5817   -0.5271    2.0585 H   0  0  0  0  0  0  0  0  0  0  0  0
    4.8378    0.1835    1.2410 H   0  0  0  0  0  0  0  0  0  0  0  0
    4.8403   -1.1614    0.0827 H   0  0  0  0  0  0  0  0  0  0  0  0
    4.6350   -2.6718    1.9550 H   0  0  0  0  0  0  0  0  0  0  0  0
    6.8347   -0.7337    2.3033 H   0  0  0  0  0  0  0  0  0  0  0  0
    6.8302   -2.0728    1.1374 H   0  0  0  0  0  0  0  0  0  0  0  0
    6.5770   -3.7033    3.0196 H   0  0  0  0  0  0  0  0  0  0  0  0
    6.5683   -2.3712    4.1789 H   0  0  0  0  0  0  0  0  0  0  0  0
    8.8618   -1.7011    3.4266 H   0  0  0  0  0  0  0  0  0  0  0  0
    8.8709   -3.0324    2.2662 H   0  0  0  0  0  0  0  0  0  0  0  0
    8.6061   -4.6716    4.1389 H   0  0  0  0  0  0  0  0  0  0  0  0
    8.6070   -3.3344    5.3069 H   0  0  0  0  0  0  0  0  0  0  0  0
   10.8026   -2.7304    4.4948 H   0  0  0  0  0  0  0  0  0  0  0  0
   10.6036   -5.5886    5.1988 H   0  0  0  0  0  0  0  0  0  0  0  0
   10.5964   -4.2478    6.3618 H   0  0  0  0  0  0  0  0  0  0  0  0
   12.8590   -3.5418    5.5530 H   0  0  0  0  0  0  0  0  0  0  0  0
   12.8600   -4.8698    4.3877 H   0  0  0  0  0  0  0  0  0  0  0  0
   12.6805   -6.5232    6.2703 H   0  0  0  0  0  0  0  0  0  0  0  0
   12.6736   -5.1924    7.4359 H   0  0  0  0  0  0  0  0  0  0  0  0
   14.8399   -5.7928    5.5440 H   0  0  0  0  0  0  0  0  0  0  0  0
   14.8341   -6.1719    7.1301 H   0  0  0  0  0  0  0  0  0  0  0  0
  1  2  1  0  0  0  0
  1 15  1  0  0  0  0
  1 16  1  0  0  0  0
  2  3  1  0  0  0  0
  2 17  1  0  0  0  0
  2 18  1  0  0  0  0
  3  4  1  0  0  0  0
  3 19  1  0  0  0  0
  3 20  1  0  0  0  0
  4  5  1  0  0  0  0
  4 21  1  0  0  0  0
  4 22  1  0  0  0  0
  5  6  1  0  0  0  0
  5 23  1  0  0  0  0
  6  7  1  0  0  0  0
  6 24  1  0  0  0  0
  6 25  1  0  0  0  0
  7  8  1  0  0  0  0
  7 26  1  0  0  0  0
  7 27  1  0  0  0  0
  8  9  1  0  0  0  0
  8 28  1  0  0  0  0
  8 29  1  0  0  0  0
  9 10  1  0  0  0  0
  9 30  1  0  0  0  0
  9 31  1  0  0  0  0
 10 11  1  0  0  0  0
 10 32  1  0  0  0  0
 11 12  1  0  0  0  0
 11 33  1  0  0  0  0
 11 34  1  0  0  0  0
 12 13  1  0  0  0  0
 12 35  1  0  0  0  0
 12 36  1  0  0  0  0
 13 14  1  0  0  0  0
 13 37  1  0  0  0  0
 13 38  1  0  0  0  0
 14 39  1  0  0  0  0
 14 40  1  0  0  0  0
M  END
$$$$
