3DS7_GNG_A_120
 OpenBabel03221817303D

 32 34  0  0  1  0  0  0  0  0999 V2000
    1.0266   -0.3785   -0.1308 O   0  0  0  0  0  0  0  0  0  0  0  0
    2.3877   -0.0178    0.0981 C   0  0  0  0  0  0  0  0  0  0  0  0
    2.8878   -0.5862    1.4267 C   0  0  1  0  0  0  0  0  0  0  0  0
    3.9259   -0.2609    1.5714 H   0  0  0  0  0  0  0  0  0  0  0  0
    2.1173   -0.0568    2.5228 O   0  0  0  0  0  0  0  0  0  0  0  0
    2.2158   -1.0264    3.5829 C   0  0  1  0  0  0  0  0  0  0  0  0
    3.1343   -0.8139    4.1438 H   0  0  0  0  0  0  0  0  0  0  0  0
    1.1130   -0.8821    4.5152 N   0  0  0  0  0  0  0  0  0  0  0  0
    0.8918   -1.7018    5.6031 C   0  0  0  0  0  0  0  0  0  0  0  0
   -0.1571   -1.3264    6.3111 N   0  0  0  0  0  0  0  0  0  0  0  0
   -0.6270   -0.1966    5.6741 C   0  0  0  0  0  0  0  0  0  0  0  0
    0.1467    0.0680    4.5770 C   0  0  0  0  0  0  0  0  0  0  0  0
   -0.0699    1.1268    3.7870 N   0  0  0  0  0  0  0  0  0  0  0  0
    0.5491    1.3579    3.0161 H   0  0  0  0  0  0  0  0  0  0  0  0
   -1.0770    1.9774    4.1609 C   0  0  0  0  0  0  0  0  0  0  0  0
   -1.8763    1.8219    5.1752 N   0  0  0  0  0  0  0  0  0  0  0  0
   -1.7426    0.6990    6.0060 C   0  0  0  0  0  0  0  0  0  0  0  0
   -2.4998    0.4867    6.9454 O   0  0  0  0  0  0  0  0  0  0  0  0
   -1.1838    3.0734    3.3690 N   0  0  0  0  0  0  0  0  0  0  0  0
    2.2825   -2.3915    2.9123 C   0  0  0  0  0  0  0  0  0  0  0  0
    2.7842   -2.1079    1.5127 C   0  0  2  0  0  0  0  0  0  0  0  0
    2.1066   -2.5298    0.7630 H   0  0  0  0  0  0  0  0  0  0  0  0
    4.0662   -2.6991    1.3181 O   0  0  0  0  0  0  0  0  0  0  0  0
    0.7550    0.0512   -0.9611 H   0  0  0  0  0  0  0  0  0  0  0  0
    2.4430    1.0750    0.1112 H   0  0  0  0  0  0  0  0  0  0  0  0
    2.9895   -0.3997   -0.7333 H   0  0  0  0  0  0  0  0  0  0  0  0
    1.5242   -2.5502    5.8323 H   0  0  0  0  0  0  0  0  0  0  0  0
   -1.0737    2.9047    2.3791 H   0  0  0  0  0  0  0  0  0  0  0  0
   -2.0365    3.5874    3.5711 H   0  0  0  0  0  0  0  0  0  0  0  0
    1.2855   -2.8446    2.8514 H   0  0  0  0  0  0  0  0  0  0  0  0
    2.9190   -3.0815    3.4774 H   0  0  0  0  0  0  0  0  0  0  0  0
    3.9384   -3.6633    1.2564 H   0  0  0  0  0  0  0  0  0  0  0  0
  1  2  1  0  0  0  0
  1 24  1  0  0  0  0
  2  3  1  0  0  0  0
  2 25  1  0  0  0  0
  2 26  1  0  0  0  0
  3  4  1  0  0  0  0
  3  5  1  0  0  0  0
  3 21  1  6  0  0  0
  5  6  1  0  0  0  0
  6 20  1  0  0  0  0
  6  8  1  0  0  0  0
  6  7  1  1  0  0  0
  8  9  1  0  0  0  0
  8 12  1  0  0  0  0
  9 10  2  0  0  0  0
  9 27  1  0  0  0  0
 10 11  1  0  0  0  0
 11 12  2  0  0  0  0
 11 17  1  0  0  0  0
 12 13  1  0  0  0  0
 13 14  1  0  0  0  0
 13 15  1  0  0  0  0
 15 16  2  0  0  0  0
 15 19  1  0  0  0  0
 16 17  1  0  0  0  0
 17 18  2  0  0  0  0
 19 28  1  0  0  0  0
 19 29  1  0  0  0  0
 20 21  1  0  0  0  0
 20 30  1  0  0  0  0
 20 31  1  0  0  0  0
 21 22  1  6  0  0  0
 21 23  1  0  0  0  0
 23 32  1  0  0  0  0
M  END
$$$$
