ligand.pdb
 OpenBabel03221817293D

 24 23  0  0  1  0  0  0  0  0999 V2000
    1.1200    0.1849    0.1419 N   0  0  0  0  0  0  0  0  0  0  0  0
    2.5826    0.0574   -0.0070 C   0  0  2  0  0  0  0  0  0  0  0  0
    3.0588    0.9227    0.4690 H   0  0  0  0  0  0  0  0  0  0  0  0
    2.9323    0.0627   -1.5070 C   0  0  0  0  0  0  0  0  0  0  0  0
    3.0028   -0.9284   -2.2169 O   0  0  0  0  0  0  0  0  0  0  0  0
    3.0713    1.3177   -2.0040 O   0  0  0  0  0  0  0  0  0  0  0  0
    3.0774   -1.2143    0.6959 C   0  0  0  0  0  0  0  0  0  0  0  0
    4.6082   -1.3060    0.7031 C   0  0  0  0  0  0  0  0  0  0  0  0
    5.0983   -2.5486    1.4495 C   0  0  0  0  0  0  0  0  0  0  0  0
    6.6250   -2.6341    1.4186 C   0  0  0  0  0  0  0  0  0  0  0  0
    7.0848   -3.8200    2.1278 N   0  0  0  0  0  0  0  0  0  0  0  0
    0.6842   -0.6610   -0.2375 H   0  0  0  0  0  0  0  0  0  0  0  0
    0.7662    0.9443   -0.4400 H   0  0  0  0  0  0  0  0  0  0  0  0
    2.9553    2.0172   -1.3322 H   0  0  0  0  0  0  0  0  0  0  0  0
    2.6612   -2.1077    0.2126 H   0  0  0  0  0  0  0  0  0  0  0  0
    2.7193   -1.2173    1.7336 H   0  0  0  0  0  0  0  0  0  0  0  0
    5.0261   -0.4087    1.1758 H   0  0  0  0  0  0  0  0  0  0  0  0
    4.9865   -1.3339   -0.3252 H   0  0  0  0  0  0  0  0  0  0  0  0
    4.6665   -3.4468    0.9902 H   0  0  0  0  0  0  0  0  0  0  0  0
    4.7464   -2.5144    2.4883 H   0  0  0  0  0  0  0  0  0  0  0  0
    7.0625   -1.7424    1.8792 H   0  0  0  0  0  0  0  0  0  0  0  0
    6.9764   -2.6796    0.3817 H   0  0  0  0  0  0  0  0  0  0  0  0
    6.7953   -3.7732    3.1037 H   0  0  0  0  0  0  0  0  0  0  0  0
    8.1036   -3.8383    2.1312 H   0  0  0  0  0  0  0  0  0  0  0  0
  1 12  1  0  0  0  0
  1 13  1  0  0  0  0
  2  4  1  0  0  0  0
  2  7  1  0  0  0  0
  2  3  1  1  0  0  0
  2  1  1  0  0  0  0
  4  5  2  0  0  0  0
  4  6  1  0  0  0  0
  6 14  1  0  0  0  0
  7  8  1  0  0  0  0
  7 15  1  0  0  0  0
  7 16  1  0  0  0  0
  8  9  1  0  0  0  0
  8 17  1  0  0  0  0
  8 18  1  0  0  0  0
  9 10  1  0  0  0  0
  9 19  1  0  0  0  0
  9 20  1  0  0  0  0
 10 11  1  0  0  0  0
 10 21  1  0  0  0  0
 10 22  1  0  0  0  0
 11 23  1  0  0  0  0
 11 24  1  0  0  0  0
M  END
$$$$
