temp2.pdb
 OpenBabel10091713583D

 73 79  0  0  1  0  0  0  0  0999 V2000
   99.1080   16.7210  101.0260 O   0  0  0  0  0  0  0  0  0  0  0  0
   99.6780   16.2970   99.8270 C   0  0  0  0  0  0  0  0  0  0  0  0
   98.9120   16.4550   98.6500 C   0  0  0  0  0  0  0  0  0  0  0  0
   99.4490   16.0740   97.4450 C   0  0  0  0  0  0  0  0  0  0  0  0
  100.6900   15.5350   97.4190 N   0  0  0  0  0  0  0  0  0  0  0  0
  101.3340   15.4020   98.5490 C   0  0  0  0  0  0  0  0  0  0  0  0
  102.6540   14.8610   98.4890 N   0  0  0  0  0  0  0  0  0  0  0  0
   98.5130   16.3530   96.5370 N   0  0  0  0  0  0  0  0  0  0  0  0
   98.6020   16.1160   95.1540 C   0  0  2  0  0  0  0  0  0  0  0  0
   97.2590   16.3150   94.5090 O   0  0  0  0  0  0  0  0  0  0  0  0
   96.8110   14.9170   94.0490 C   0  0  1  0  0  0  0  0  0  0  0  0
   97.5590   14.0540   94.5520 C   0  0  1  0  0  0  0  0  0  0  0  0
   97.7840   12.9630   93.6670 O   0  0  0  0  0  0  0  0  0  0  0  0
   98.2170   11.6650   94.3780 P   0  0  1  0  0  0  0  0  0  0  0  0
   97.0190   11.1300   95.2280 O   0  0  0  0  0  0  0  0  0  0  0  0
   95.6860   11.1020   94.6930 C   0  0  0  0  0  0  0  0  0  0  0  0
   94.6190   10.9610   95.6950 C   0  0  2  0  0  0  0  0  0  0  0  0
   94.4990   12.0270   96.3500 C   0  0  1  0  0  0  0  0  0  0  0  0
   93.5840   12.9550   95.7230 O   0  0  0  0  0  0  0  0  0  0  0  0
   93.7000   14.4340   96.1140 P   0  0  1  0  0  0  0  0  0  0  0  0
   92.6080   15.1140   95.5490 O   0  0  0  0  0  0  0  0  0  0  0  0
   93.5390   14.6310   97.5120 O   0  0  0  0  0  0  0  0  0  0  0  0
   94.9610   15.1240   95.5090 O   0  0  0  0  0  0  0  0  0  0  0  0
   94.0710   11.5630   97.7340 C   0  0  2  0  0  0  0  0  0  0  0  0
   94.7620   10.2110   97.9120 C   0  0  2  0  0  0  0  0  0  0  0  0
   95.7860   10.1380   98.9180 N   0  0  0  0  0  0  0  0  0  0  0  0
   95.6430   10.4510  100.2140 C   0  0  0  0  0  0  0  0  0  0  0  0
   96.8830   10.1600  100.8220 C   0  0  0  0  0  0  0  0  0  0  0  0
   97.6530    9.7150   99.8920 N   0  0  0  0  0  0  0  0  0  0  0  0
   96.9520   10.4200  102.2280 C   0  0  0  0  0  0  0  0  0  0  0  0
   95.8740   10.8870  102.8860 N   0  0  0  0  0  0  0  0  0  0  0  0
   94.6950   11.1560  102.2660 C   0  0  0  0  0  0  0  0  0  0  0  0
   98.1740   10.1770  102.9220 N   0  0  0  0  0  0  0  0  0  0  0  0
   94.6150   10.8990  100.9660 N   0  0  0  0  0  0  0  0  0  0  0  0
   96.9780    9.6860   98.7560 C   0  0  0  0  0  0  0  0  0  0  0  0
   92.8220   11.3880   97.7680 O   0  0  0  0  0  0  0  0  0  0  0  0
   95.0820    9.8500   96.7600 O   0  0  0  0  0  0  0  0  0  0  0  0
   98.4320   10.6960   93.3910 O   0  0  0  0  0  0  0  0  0  0  0  0
   99.4620   11.6930   95.1060 O   0  0  0  0  0  0  0  0  0  0  0  0
   95.4020   14.5800   94.3300 C   0  0  0  0  0  0  0  0  0  0  0  0
   98.9160   14.8580   94.9060 C   0  0  1  0  0  0  0  0  0  0  0  0
   99.7930   14.6410   93.8650 O   0  0  0  0  0  0  0  0  0  0  0  0
   97.5080   16.8810   97.1320 C   0  0  0  0  0  0  0  0  0  0  0  0
   97.7070   16.9550   98.4080 N   0  0  0  0  0  0  0  0  0  0  0  0
  100.8830   15.7520   99.7280 N   0  0  0  0  0  0  0  0  0  0  0  0
    0.0000    0.0000    0.0000 H   0  0  0  0  0  0  0  0  0  0  0  0
  102.8474   14.0995   97.8958 H   0  0  0  0  0  0  0  0  0  0  0  0
  103.3708   15.2495   99.0408 H   0  0  0  0  0  0  0  0  0  0  0  0
   99.3435   16.7884   94.7758 H   0  0  0  0  0  0  0  0  0  0  0  0
   96.8877   14.9304   92.9818 H   0  0  0  0  0  0  0  0  0  0  0  0
   97.1300   13.5993   95.4204 H   0  0  0  0  0  0  0  0  0  0  0  0
   95.6170   10.2765   94.0158 H   0  0  0  0  0  0  0  0  0  0  0  0
   95.5318   12.0504   94.2222 H   0  0  0  0  0  0  0  0  0  0  0  0
   93.7065   10.7099   95.1958 H   0  0  0  0  0  0  0  0  0  0  0  0
   95.4054   12.5934   96.3997 H   0  0  0  0  0  0  0  0  0  0  0  0
   92.6395   15.0302   94.5831 H   0  0  0  0  0  0  0  0  0  0  0  0
   94.3250   12.2737   98.4925 H   0  0  0  0  0  0  0  0  0  0  0  0
   94.0908    9.5035   98.3523 H   0  0  0  0  0  0  0  0  0  0  0  0
   94.4925   12.1981  102.4000 H   0  0  0  0  0  0  0  0  0  0  0  0
   93.9898   10.4915  102.7198 H   0  0  0  0  0  0  0  0  0  0  0  0
   98.9578    9.8355  102.4339 H   0  0  0  0  0  0  0  0  0  0  0  0
   98.2337   10.3507  103.8892 H   0  0  0  0  0  0  0  0  0  0  0  0
   97.4854   10.2884   98.0318 H   0  0  0  0  0  0  0  0  0  0  0  0
   96.9159    8.6715   98.4217 H   0  0  0  0  0  0  0  0  0  0  0  0
   92.5668   10.7458   97.0873 H   0  0  0  0  0  0  0  0  0  0  0  0
   99.1698   10.9701   92.8241 H   0  0  0  0  0  0  0  0  0  0  0  0
   95.3075   13.5156   94.3857 H   0  0  0  0  0  0  0  0  0  0  0  0
   94.8051   14.9850   93.5397 H   0  0  0  0  0  0  0  0  0  0  0  0
   99.4130   14.5220   95.7920 H   0  0  0  0  0  0  0  0  0  0  0  0
   99.3862   14.9313   93.0337 H   0  0  0  0  0  0  0  0  0  0  0  0
   96.6397   16.2834   96.9480 H   0  0  0  0  0  0  0  0  0  0  0  0
   97.3708   17.8718   96.7520 H   0  0  0  0  0  0  0  0  0  0  0  0
    0.0000    0.0000    0.0000 H   0  0  0  0  0  0  0  0  0  0  0  0
  1  2  2  0  0  0  0
  2 45  2  0  0  0  0
  2  3  1  0  0  0  0
  3 44  2  0  0  0  0
  3  4  1  0  0  0  0
  4  8  1  0  0  0  0
  4  5  2  0  0  0  0
  5  6  2  0  0  0  0
  5 46  1  0  0  0  0
  6  7  1  0  0  0  0
  6 45  2  0  0  0  0
  7 47  1  0  0  0  0
  7 48  1  0  0  0  0
  8 43  1  0  0  0  0
  9  8  1  0  0  0  0
  9 41  1  0  0  0  0
  9 10  1  0  0  0  0
  9 49  1  6  0  0  0
 10 11  1  0  0  0  0
 11 40  1  0  0  0  0
 11 12  1  0  0  0  0
 11 50  1  6  0  0  0
 12 41  1  0  0  0  0
 12 13  1  0  0  0  0
 12 51  1  1  0  0  0
 13 14  1  0  0  0  0
 14 39  2  1  0  0  0
 14 38  1  0  0  0  0
 14 15  1  0  0  0  0
 15 16  1  0  0  0  0
 16 52  1  0  0  0  0
 16 53  1  0  0  0  0
 17 16  1  0  0  0  0
 17 37  1  0  0  0  0
 17 18  1  0  0  0  0
 17 54  1  6  0  0  0
 18 24  1  0  0  0  0
 18 19  1  0  0  0  0
 18 55  1  1  0  0  0
 19 20  1  0  0  0  0
 20 23  1  0  0  0  0
 20 22  2  1  0  0  0
 20 21  1  0  0  0  0
 21 56  1  0  0  0  0
 23 40  1  0  0  0  0
 24 36  1  0  0  0  0
 24 25  1  0  0  0  0
 24 57  1  1  0  0  0
 25 26  1  0  0  0  0
 25 37  1  0  0  0  0
 25 58  1  1  0  0  0
 26 35  1  0  0  0  0
 26 27  1  0  0  0  0
 27 34  2  0  0  0  0
 27 28  1  0  0  0  0
 28 30  1  0  0  0  0
 28 29  2  0  0  0  0
 29 35  1  0  0  0  0
 30 33  1  0  0  0  0
 30 31  2  0  0  0  0
 31 32  1  0  0  0  0
 32 34  1  0  0  0  0
 32 59  1  0  0  0  0
 32 60  1  0  0  0  0
 33 61  1  0  0  0  0
 33 62  1  0  0  0  0
 35 63  1  0  0  0  0
 35 64  1  0  0  0  0
 36 65  1  0  0  0  0
 38 66  1  0  0  0  0
 40 67  1  0  0  0  0
 40 68  1  0  0  0  0
 41 42  1  0  0  0  0
 41 69  1  1  0  0  0
 42 70  1  0  0  0  0
 43 44  1  0  0  0  0
 43 71  1  0  0  0  0
 43 72  1  0  0  0  0
 45 73  1  0  0  0  0
M  END
$$$$
