ligand.pdb
 OpenBabel03221817013D

 54 54  0  0  0  0  0  0  0  0999 V2000
   -0.5994   -1.2460   -0.1031 C   0  0  0  0  0  0  0  0  0  0  0  0
   -1.3807   -0.0741   -0.1453 C   0  0  0  0  0  0  0  0  0  0  0  0
   -0.7317    1.1857   -0.1005 C   0  0  0  0  0  0  0  0  0  0  0  0
    0.6544    1.2949   -0.0236 C   0  0  0  0  0  0  0  0  0  0  0  0
    1.4132    0.1357    0.0068 C   0  0  0  0  0  0  0  0  0  0  0  0
    0.7981   -1.1148   -0.0303 C   0  0  0  0  0  0  0  0  0  0  0  0
    1.3779    2.4504    0.0184 O   0  0  0  0  0  0  0  0  0  0  0  0
    0.6490    3.6696   -0.0013 C   0  0  0  0  0  0  0  0  0  0  0  0
   -2.8940   -0.0640   -0.2410 C   0  0  0  0  0  0  0  0  0  0  0  0
   -3.5899   -0.0661    1.0482 N   0  0  0  0  0  0  0  0  0  0  0  0
   -3.3762    1.1309    1.8582 C   0  0  0  0  0  0  0  0  0  0  0  0
   -4.1024    1.0367    3.2079 C   0  0  0  0  0  0  0  0  0  0  0  0
   -3.7304   -0.1929    4.0488 C   0  0  0  0  0  0  0  0  0  0  0  0
   -2.2263   -0.2942    4.3025 C   0  0  0  0  0  0  0  0  0  0  0  0
   -1.8970   -1.4876    5.0447 N   0  0  0  0  0  0  0  0  0  0  0  0
   -1.9842   -1.6430    6.3782 C   0  0  0  0  0  0  0  0  0  0  0  0
   -2.2717   -0.7718    7.2699 N   0  0  0  0  0  0  0  0  0  0  0  0
   -1.6925   -2.9032    6.7506 N   0  0  0  0  0  0  0  0  0  0  0  0
   -1.2367   -2.4729   -0.1424 O   0  0  0  0  0  0  0  0  0  0  0  0
   -0.3434   -3.6058   -0.1508 C   0  0  0  0  0  0  0  0  0  0  0  0
   -1.0713   -4.9531   -0.2128 C   0  0  0  0  0  0  0  0  0  0  0  0
   -1.8032   -5.1907    1.0180 N   0  0  0  0  0  0  0  0  0  0  0  0
   -2.0917   -6.4080    1.5240 C   0  0  0  0  0  0  0  0  0  0  0  0
   -1.6378   -7.5566    1.1886 N   0  0  0  0  0  0  0  0  0  0  0  0
   -2.9600   -6.3186    2.5475 N   0  0  0  0  0  0  0  0  0  0  0  0
   -1.3518    2.0772   -0.1196 H   0  0  0  0  0  0  0  0  0  0  0  0
    2.4964    0.1989    0.0587 H   0  0  0  0  0  0  0  0  0  0  0  0
    1.4662   -1.9691   -0.0054 H   0  0  0  0  0  0  0  0  0  0  0  0
    1.3718    4.4864   -0.0819 H   0  0  0  0  0  0  0  0  0  0  0  0
    0.0911    3.8002    0.9316 H   0  0  0  0  0  0  0  0  0  0  0  0
   -0.0130    3.7296   -0.8711 H   0  0  0  0  0  0  0  0  0  0  0  0
   -3.2286   -0.9327   -0.8188 H   0  0  0  0  0  0  0  0  0  0  0  0
   -3.2202    0.8032   -0.8322 H   0  0  0  0  0  0  0  0  0  0  0  0
   -3.3120   -0.9061    1.5479 H   0  0  0  0  0  0  0  0  0  0  0  0
   -3.7382    2.0203    1.3282 H   0  0  0  0  0  0  0  0  0  0  0  0
   -2.3140    1.2953    2.0613 H   0  0  0  0  0  0  0  0  0  0  0  0
   -5.1868    1.0439    3.0425 H   0  0  0  0  0  0  0  0  0  0  0  0
   -3.8731    1.9409    3.7878 H   0  0  0  0  0  0  0  0  0  0  0  0
   -4.0908   -1.1045    3.5565 H   0  0  0  0  0  0  0  0  0  0  0  0
   -4.2693   -0.1407    5.0028 H   0  0  0  0  0  0  0  0  0  0  0  0
   -1.8604    0.6021    4.8162 H   0  0  0  0  0  0  0  0  0  0  0  0
   -1.6808   -0.3562    3.3576 H   0  0  0  0  0  0  0  0  0  0  0  0
   -2.0060   -2.3484    4.5236 H   0  0  0  0  0  0  0  0  0  0  0  0
   -2.4557    0.1246    6.8246 H   0  0  0  0  0  0  0  0  0  0  0  0
   -0.8679   -3.2641    6.2924 H   0  0  0  0  0  0  0  0  0  0  0  0
   -1.5762   -2.9275    7.7611 H   0  0  0  0  0  0  0  0  0  0  0  0
    0.2628   -3.5973    0.7643 H   0  0  0  0  0  0  0  0  0  0  0  0
    0.2992   -3.5479   -1.0363 H   0  0  0  0  0  0  0  0  0  0  0  0
   -0.3010   -5.7211   -0.3504 H   0  0  0  0  0  0  0  0  0  0  0  0
   -1.7551   -4.9945   -1.0655 H   0  0  0  0  0  0  0  0  0  0  0  0
   -2.5616   -4.5264    1.1445 H   0  0  0  0  0  0  0  0  0  0  0  0
   -0.9848   -7.4709    0.4124 H   0  0  0  0  0  0  0  0  0  0  0  0
   -2.7302   -5.5852    3.2043 H   0  0  0  0  0  0  0  0  0  0  0  0
   -3.0139   -7.2165    3.0213 H   0  0  0  0  0  0  0  0  0  0  0  0
  1  2  2  0  0  0  0
  1  6  1  0  0  0  0
  1 19  1  0  0  0  0
  2  3  1  0  0  0  0
  2  9  1  0  0  0  0
  3  4  2  0  0  0  0
  3 26  1  0  0  0  0
  4  5  1  0  0  0  0
  4  7  1  0  0  0  0
  5  6  2  0  0  0  0
  5 27  1  0  0  0  0
  6 28  1  0  0  0  0
  7  8  1  0  0  0  0
  8 29  1  0  0  0  0
  8 30  1  0  0  0  0
  8 31  1  0  0  0  0
  9 10  1  0  0  0  0
  9 32  1  0  0  0  0
  9 33  1  0  0  0  0
 10 11  1  0  0  0  0
 10 34  1  0  0  0  0
 11 12  1  0  0  0  0
 11 35  1  0  0  0  0
 11 36  1  0  0  0  0
 12 13  1  0  0  0  0
 12 37  1  0  0  0  0
 12 38  1  0  0  0  0
 13 14  1  0  0  0  0
 13 39  1  0  0  0  0
 13 40  1  0  0  0  0
 14 15  1  0  0  0  0
 14 41  1  0  0  0  0
 14 42  1  0  0  0  0
 15 16  1  0  0  0  0
 15 43  1  0  0  0  0
 16 17  2  0  0  0  0
 16 18  1  0  0  0  0
 17 44  1  0  0  0  0
 18 45  1  0  0  0  0
 18 46  1  0  0  0  0
 19 20  1  0  0  0  0
 20 21  1  0  0  0  0
 20 47  1  0  0  0  0
 20 48  1  0  0  0  0
 21 22  1  0  0  0  0
 21 49  1  0  0  0  0
 21 50  1  0  0  0  0
 22 23  1  0  0  0  0
 22 51  1  0  0  0  0
 23 24  2  0  0  0  0
 23 25  1  0  0  0  0
 24 52  1  0  0  0  0
 25 53  1  0  0  0  0
 25 54  1  0  0  0  0
M  END
$$$$
