3TZR_SS0_A_75
 OpenBabel03221817313D

 53 55  0  0  1  0  0  0  0  0999 V2000
    7.4259   -1.7933   -2.2220 C   0  0  0  0  0  0  0  0  0  0  0  0
    6.6209   -0.8913   -3.0526 N   0  0  0  0  0  0  0  0  0  0  0  0
    5.1689   -1.0349   -2.8256 C   0  0  0  0  0  0  0  0  0  0  0  0
    4.6821   -2.4508   -3.1476 C   0  0  0  0  0  0  0  0  0  0  0  0
    3.1974   -2.6636   -2.8527 C   0  0  0  0  0  0  0  0  0  0  0  0
    2.6625   -3.9902   -3.1386 N   0  0  0  0  0  0  0  0  0  0  0  0
    1.3642   -4.2760   -3.5668 C   0  0  0  0  0  0  0  0  0  0  0  0
    1.3419   -5.6730   -3.6170 C   0  0  0  0  0  0  0  0  0  0  0  0
    2.5414   -6.2124   -3.2694 N   0  0  0  0  0  0  0  0  0  0  0  0
    3.3007   -5.2017   -2.9443 C   0  0  0  0  0  0  0  0  0  0  0  0
    4.5461   -5.3592   -2.4655 N   0  0  0  0  0  0  0  0  0  0  0  0
    0.1809   -6.3615   -3.9863 C   0  0  0  0  0  0  0  0  0  0  0  0
   -0.9693   -5.6332   -4.2709 C   0  0  0  0  0  0  0  0  0  0  0  0
   -0.9556   -4.2420   -4.2078 C   0  0  0  0  0  0  0  0  0  0  0  0
   -2.1640   -3.6520   -4.4965 O   0  0  0  0  0  0  0  0  0  0  0  0
   -2.2702   -2.2855   -4.0904 C   0  0  0  0  0  0  0  0  0  0  0  0
   -1.0937   -1.4752   -4.6169 C   0  0  2  0  0  0  0  0  0  0  0  0
   -1.0250   -1.6664   -5.6964 H   0  0  0  0  0  0  0  0  0  0  0  0
    0.1735   -2.0059   -3.9473 C   0  0  0  0  0  0  0  0  0  0  0  0
    0.2159   -3.5083   -3.9030 C   0  0  0  0  0  0  0  0  0  0  0  0
   -1.2814    0.0299   -4.3621 C   0  0  0  0  0  0  0  0  0  0  0  0
   -0.1673    0.8699   -4.8475 N   0  0  0  0  0  0  0  0  0  0  0  0
   -0.0114    0.7871   -6.3036 C   0  0  0  0  0  0  0  0  0  0  0  0
   -0.3814    2.2646   -4.4513 C   0  0  0  0  0  0  0  0  0  0  0  0
    7.0384    0.4909   -2.8117 C   0  0  0  0  0  0  0  0  0  0  0  0
    7.2781   -2.8409   -2.5017 H   0  0  0  0  0  0  0  0  0  0  0  0
    7.2024   -1.6804   -1.1551 H   0  0  0  0  0  0  0  0  0  0  0  0
    8.4958   -1.6095   -2.3723 H   0  0  0  0  0  0  0  0  0  0  0  0
    4.6307   -0.3308   -3.4737 H   0  0  0  0  0  0  0  0  0  0  0  0
    4.9145   -0.7791   -1.7885 H   0  0  0  0  0  0  0  0  0  0  0  0
    5.2553   -3.1278   -2.5242 H   0  0  0  0  0  0  0  0  0  0  0  0
    4.8953   -2.6975   -4.1944 H   0  0  0  0  0  0  0  0  0  0  0  0
    2.6543   -1.9355   -3.4503 H   0  0  0  0  0  0  0  0  0  0  0  0
    2.9721   -2.4641   -1.7981 H   0  0  0  0  0  0  0  0  0  0  0  0
    4.8016   -6.3347   -2.3468 H   0  0  0  0  0  0  0  0  0  0  0  0
    4.8309   -4.8185   -1.6607 H   0  0  0  0  0  0  0  0  0  0  0  0
    0.1834   -7.4456   -4.0241 H   0  0  0  0  0  0  0  0  0  0  0  0
   -1.8832   -6.1572   -4.5391 H   0  0  0  0  0  0  0  0  0  0  0  0
   -2.3572   -2.2376   -2.9973 H   0  0  0  0  0  0  0  0  0  0  0  0
   -3.2097   -1.9052   -4.5066 H   0  0  0  0  0  0  0  0  0  0  0  0
    0.2502   -1.6325   -2.9187 H   0  0  0  0  0  0  0  0  0  0  0  0
    1.0244   -1.6371   -4.5258 H   0  0  0  0  0  0  0  0  0  0  0  0
   -1.3813    0.1784   -3.2780 H   0  0  0  0  0  0  0  0  0  0  0  0
   -2.2277    0.3608   -4.8104 H   0  0  0  0  0  0  0  0  0  0  0  0
    0.4280   -0.1737   -6.5904 H   0  0  0  0  0  0  0  0  0  0  0  0
    0.6813    1.5531   -6.6717 H   0  0  0  0  0  0  0  0  0  0  0  0
   -0.9640    0.9106   -6.8308 H   0  0  0  0  0  0  0  0  0  0  0  0
   -0.4184    2.3520   -3.3599 H   0  0  0  0  0  0  0  0  0  0  0  0
   -1.3085    2.6752   -4.8668 H   0  0  0  0  0  0  0  0  0  0  0  0
    0.4535    2.8927   -4.7830 H   0  0  0  0  0  0  0  0  0  0  0  0
    8.1028    0.6131   -3.0432 H   0  0  0  0  0  0  0  0  0  0  0  0
    6.8751    0.7937   -1.7712 H   0  0  0  0  0  0  0  0  0  0  0  0
    6.4948    1.1800   -3.4664 H   0  0  0  0  0  0  0  0  0  0  0  0
  1  2  1  0  0  0  0
  1 26  1  0  0  0  0
  1 27  1  0  0  0  0
  1 28  1  0  0  0  0
  2  3  1  0  0  0  0
  2 25  1  0  0  0  0
  3  4  1  0  0  0  0
  3 29  1  0  0  0  0
  3 30  1  0  0  0  0
  4  5  1  0  0  0  0
  4 31  1  0  0  0  0
  4 32  1  0  0  0  0
  5  6  1  0  0  0  0
  5 33  1  0  0  0  0
  5 34  1  0  0  0  0
  6  7  1  0  0  0  0
  6 10  1  0  0  0  0
  7  8  2  0  0  0  0
  7 20  1  0  0  0  0
  8  9  1  0  0  0  0
  8 12  1  0  0  0  0
  9 10  2  0  0  0  0
 10 11  1  0  0  0  0
 11 35  1  0  0  0  0
 11 36  1  0  0  0  0
 12 13  2  0  0  0  0
 12 37  1  0  0  0  0
 13 14  1  0  0  0  0
 13 38  1  0  0  0  0
 14 15  1  0  0  0  0
 14 20  2  0  0  0  0
 15 16  1  0  0  0  0
 16 17  1  0  0  0  0
 16 39  1  0  0  0  0
 16 40  1  0  0  0  0
 17 18  1  6  0  0  0
 17 19  1  0  0  0  0
 17 21  1  0  0  0  0
 19 20  1  0  0  0  0
 19 41  1  0  0  0  0
 19 42  1  0  0  0  0
 21 22  1  0  0  0  0
 21 43  1  0  0  0  0
 21 44  1  0  0  0  0
 22 23  1  0  0  0  0
 22 24  1  0  0  0  0
 23 45  1  0  0  0  0
 23 46  1  0  0  0  0
 23 47  1  0  0  0  0
 24 48  1  0  0  0  0
 24 49  1  0  0  0  0
 24 50  1  0  0  0  0
 25 51  1  0  0  0  0
 25 52  1  0  0  0  0
 25 53  1  0  0  0  0
M  END
$$$$
