1J7T_PAR_A_45
 OpenBabel10091713573D
Coordinates from PDB:1J7T:A:45 Model:1 without hydrogens
 87 90  0  0  1  0  0  0  0  0999 V2000
   16.3220   31.0190   65.8360 C   0  0  2  0  0  0  0  0  0  0  0  0
   15.6290   32.2620   65.9690 O   0  0  0  0  0  0  0  0  0  0  0  0
   15.5730   29.9990   66.7270 C   0  0  2  0  0  0  0  0  0  0  0  0
   14.1150   30.1420   66.5950 N   0  0  0  0  0  0  0  0  0  0  0  0
   15.9110   30.2070   68.1910 C   0  0  1  0  0  0  0  0  0  0  0  0
   15.2850   29.2450   69.0320 O   0  0  0  0  0  0  0  0  0  0  0  0
   17.4210   30.1460   68.3410 C   0  0  2  0  0  0  0  0  0  0  0  0
   17.7810   30.1430   69.6930 O   0  0  0  0  0  0  0  0  0  0  0  0
   18.0340   31.3470   67.6120 C   0  0  2  0  0  0  0  0  0  0  0  0
   17.7270   31.2030   66.2040 O   0  0  0  0  0  0  0  0  0  0  0  0
   19.5280   31.4170   67.7900 C   0  0  0  0  0  0  0  0  0  0  0  0
   20.1370   31.9300   66.6400 O   0  0  0  0  0  0  0  0  0  0  0  0
   14.4410   35.4870   63.4470 C   0  0  2  0  0  0  0  0  0  0  0  0
   14.3370   36.5460   62.4010 N   0  0  0  0  0  0  0  0  0  0  0  0
   15.6890   35.7210   64.3560 C   0  0  0  0  0  0  0  0  0  0  0  0
   15.7250   34.6580   65.4960 C   0  0  2  0  0  0  0  0  0  0  0  0
   16.9100   34.8890   66.3590 N   0  0  0  0  0  0  0  0  0  0  0  0
   15.7750   33.2170   64.8970 C   0  0  2  0  0  0  0  0  0  0  0  0
   14.6750   32.9230   63.8870 C   0  0  2  0  0  0  0  0  0  0  0  0
   15.0590   31.6660   63.2680 O   0  0  0  0  0  0  0  0  0  0  0  0
   14.5070   34.0610   62.8040 C   0  0  1  0  0  0  0  0  0  0  0  0
   13.2780   33.8440   62.1000 O   0  0  0  0  0  0  0  0  0  0  0  0
   14.0830   30.8840   62.5450 C   0  0  1  0  0  0  0  0  0  0  0  0
   14.7710   30.0410   61.4240 C   0  0  2  0  0  0  0  0  0  0  0  0
   14.8120   30.7080   60.1470 O   0  0  0  0  0  0  0  0  0  0  0  0
   13.8640   28.8170   61.4530 C   0  0  2  0  0  0  0  0  0  0  0  0
   12.5830   29.0990   60.8040 O   0  0  0  0  0  0  0  0  0  0  0  0
   13.6310   28.5890   62.9460 C   0  0  2  0  0  0  0  0  0  0  0  0
   13.4550   29.9230   63.4180 O   0  0  0  0  0  0  0  0  0  0  0  0
   14.7790   27.8700   63.7010 C   0  0  0  0  0  0  0  0  0  0  0  0
   14.2730   27.2880   64.8920 O   0  0  0  0  0  0  0  0  0  0  0  0
   11.7700   27.9440   60.4920 C   0  0  2  0  0  0  0  0  0  0  0  0
   10.9040   28.1230   59.2060 C   0  0  2  0  0  0  0  0  0  0  0  0
   10.1410   29.4090   59.2410 N   0  0  0  0  0  0  0  0  0  0  0  0
    9.9280   26.8820   59.0340 C   0  0  1  0  0  0  0  0  0  0  0  0
   10.7080   25.7680   58.5330 O   0  0  0  0  0  0  0  0  0  0  0  0
    9.1710   26.4540   60.3620 C   0  0  2  0  0  0  0  0  0  0  0  0
    8.2320   27.4830   60.6740 O   0  0  0  0  0  0  0  0  0  0  0  0
   10.1820   26.2930   61.5440 C   0  0  1  0  0  0  0  0  0  0  0  0
   10.8800   27.5860   61.6560 O   0  0  0  0  0  0  0  0  0  0  0  0
    9.5140   25.8930   62.9140 C   0  0  0  0  0  0  0  0  0  0  0  0
    8.7600   26.9830   63.5930 N   0  0  0  0  0  0  0  0  0  0  0  0
   16.3319   30.6517   64.8311 H   0  0  0  0  0  0  0  0  0  0  0  0
   15.8822   29.0278   66.4012 H   0  0  0  0  0  0  0  0  0  0  0  0
   13.8347   31.0712   66.9087 H   0  0  0  0  0  0  0  0  0  0  0  0
   13.6510   29.4359   67.1664 H   0  0  0  0  0  0  0  0  0  0  0  0
   15.5400   31.1621   68.4992 H   0  0  0  0  0  0  0  0  0  0  0  0
   15.5908   28.3567   68.7906 H   0  0  0  0  0  0  0  0  0  0  0  0
   17.7926   29.2404   67.9089 H   0  0  0  0  0  0  0  0  0  0  0  0
   17.4576   30.9541   70.1155 H   0  0  0  0  0  0  0  0  0  0  0  0
   17.6248   32.2478   68.0195 H   0  0  0  0  0  0  0  0  0  0  0  0
   19.9060   30.4341   67.9795 H   0  0  0  0  0  0  0  0  0  0  0  0
   19.7474   32.0631   68.6142 H   0  0  0  0  0  0  0  0  0  0  0  0
   19.9440   31.3509   65.8862 H   0  0  0  0  0  0  0  0  0  0  0  0
   13.5601   35.5455   64.0516 H   0  0  0  0  0  0  0  0  0  0  0  0
   15.1643   36.5176   61.8050 H   0  0  0  0  0  0  0  0  0  0  0  0
   14.2714   37.4604   62.8482 H   0  0  0  0  0  0  0  0  0  0  0  0
   15.6361   36.6996   64.7855 H   0  0  0  0  0  0  0  0  0  0  0  0
   16.5761   35.6319   63.7644 H   0  0  0  0  0  0  0  0  0  0  0  0
   14.8356   34.7521   66.0834 H   0  0  0  0  0  0  0  0  0  0  0  0
   17.7594   34.7998   65.8013 H   0  0  0  0  0  0  0  0  0  0  0  0
   16.9228   34.1996   67.1106 H   0  0  0  0  0  0  0  0  0  0  0  0
   16.7139   33.1424   64.3892 H   0  0  0  0  0  0  0  0  0  0  0  0
   13.7224   32.8708   64.3715 H   0  0  0  0  0  0  0  0  0  0  0  0
   15.3573   34.0191   62.1559 H   0  0  0  0  0  0  0  0  0  0  0  0
   12.5360   33.8902   62.7230 H   0  0  0  0  0  0  0  0  0  0  0  0
   13.3742   31.5761   62.1407 H   0  0  0  0  0  0  0  0  0  0  0  0
   15.8097   29.8357   61.5781 H   0  0  0  0  0  0  0  0  0  0  0  0
   13.9121   30.9550   59.8822 H   0  0  0  0  0  0  0  0  0  0  0  0
   14.2921   27.9789   60.9438 H   0  0  0  0  0  0  0  0  0  0  0  0
   12.8090   27.9254   63.1160 H   0  0  0  0  0  0  0  0  0  0  0  0
   15.5422   28.5785   63.9470 H   0  0  0  0  0  0  0  0  0  0  0  0
   15.1898   27.1037   63.0773 H   0  0  0  0  0  0  0  0  0  0  0  0
   13.9004   27.9820   65.4580 H   0  0  0  0  0  0  0  0  0  0  0  0
   12.4574   27.1470   60.2993 H   0  0  0  0  0  0  0  0  0  0  0  0
   11.5568   28.1646   58.3592 H   0  0  0  0  0  0  0  0  0  0  0  0
    9.5055   29.4057   60.0388 H   0  0  0  0  0  0  0  0  0  0  0  0
    9.6045   29.5096   58.3793 H   0  0  0  0  0  0  0  0  0  0  0  0
    9.1579   27.1747   58.3512 H   0  0  0  0  0  0  0  0  0  0  0  0
   11.3923   25.5355   59.1800 H   0  0  0  0  0  0  0  0  0  0  0  0
    8.6785   25.5153   60.2162 H   0  0  0  0  0  0  0  0  0  0  0  0
    8.7020   28.3219   60.8012 H   0  0  0  0  0  0  0  0  0  0  0  0
   10.8478   25.4825   61.3326 H   0  0  0  0  0  0  0  0  0  0  0  0
   10.2875   25.5633   63.5758 H   0  0  0  0  0  0  0  0  0  0  0  0
    8.7962   25.1335   62.6842 H   0  0  0  0  0  0  0  0  0  0  0  0
    9.4002   27.7389   63.8362 H   0  0  0  0  0  0  0  0  0  0  0  0
    8.3260   26.6189   64.4412 H   0  0  0  0  0  0  0  0  0  0  0  0
  1  2  1  0  0  0  0
  1  3  1  0  0  0  0
  1 10  1  0  0  0  0
  1 43  1  6  0  0  0
  2 18  1  0  0  0  0
  3  4  1  0  0  0  0
  3  5  1  0  0  0  0
  3 44  1  6  0  0  0
  4 45  1  0  0  0  0
  4 46  1  0  0  0  0
  5  6  1  0  0  0  0
  5  7  1  0  0  0  0
  5 47  1  1  0  0  0
  6 48  1  0  0  0  0
  7  8  1  0  0  0  0
  7  9  1  0  0  0  0
  7 49  1  6  0  0  0
  8 50  1  0  0  0  0
  9 10  1  0  0  0  0
  9 11  1  0  0  0  0
  9 51  1  1  0  0  0
 11 12  1  0  0  0  0
 11 52  1  0  0  0  0
 11 53  1  0  0  0  0
 12 54  1  0  0  0  0
 13 14  1  0  0  0  0
 13 15  1  0  0  0  0
 13 21  1  0  0  0  0
 13 55  1  1  0  0  0
 14 56  1  0  0  0  0
 14 57  1  0  0  0  0
 15 16  1  0  0  0  0
 15 58  1  0  0  0  0
 15 59  1  0  0  0  0
 16 17  1  0  0  0  0
 16 18  1  0  0  0  0
 16 60  1  1  0  0  0
 17 61  1  0  0  0  0
 17 62  1  0  0  0  0
 18 19  1  0  0  0  0
 18 63  1  6  0  0  0
 19 20  1  0  0  0  0
 19 21  1  0  0  0  0
 19 64  1  1  0  0  0
 20 23  1  0  0  0  0
 21 22  1  0  0  0  0
 21 65  1  6  0  0  0
 22 66  1  0  0  0  0
 23 24  1  0  0  0  0
 23 29  1  0  0  0  0
 23 67  1  6  0  0  0
 24 25  1  0  0  0  0
 24 26  1  0  0  0  0
 24 68  1  1  0  0  0
 25 69  1  0  0  0  0
 26 27  1  0  0  0  0
 26 28  1  0  0  0  0
 26 70  1  6  0  0  0
 27 32  1  0  0  0  0
 28 29  1  0  0  0  0
 28 30  1  0  0  0  0
 28 71  1  1  0  0  0
 30 31  1  0  0  0  0
 30 72  1  0  0  0  0
 30 73  1  0  0  0  0
 31 74  1  0  0  0  0
 32 33  1  0  0  0  0
 32 40  1  0  0  0  0
 32 75  1  6  0  0  0
 33 34  1  0  0  0  0
 33 35  1  0  0  0  0
 33 76  1  6  0  0  0
 34 77  1  0  0  0  0
 34 78  1  0  0  0  0
 35 36  1  0  0  0  0
 35 37  1  0  0  0  0
 35 79  1  6  0  0  0
 36 80  1  0  0  0  0
 37 38  1  0  0  0  0
 37 39  1  0  0  0  0
 37 81  1  6  0  0  0
 38 82  1  0  0  0  0
 39 40  1  0  0  0  0
 39 41  1  0  0  0  0
 39 83  1  6  0  0  0
 41 42  1  0  0  0  0
 41 84  1  0  0  0  0
 41 85  1  0  0  0  0
 42 86  1  0  0  0  0
 42 87  1  0  0  0  0
M  END
$$$$
