2ET3_LLL_A_50
 OpenBabel03221817203D

 70 72  0  0  1  0  0  0  0  0999 V2000
   -1.4681    3.5923   -0.8706 C   0  0  2  0  0  0  0  0  0  0  0  0
   -1.5025    4.5690   -0.3887 H   0  0  0  0  0  0  0  0  0  0  0  0
   -0.8901    2.6783    0.0801 O   0  0  0  0  0  0  0  0  0  0  0  0
    0.5384    2.7992    0.2251 C   0  0  2  0  0  0  0  0  0  0  0  0
    0.9886    2.6311   -0.7628 H   0  0  0  0  0  0  0  0  0  0  0  0
    1.0505    1.6982    1.1960 C   0  0  2  0  0  0  0  0  0  0  0  0
    0.7123    1.9339    2.2138 H   0  0  0  0  0  0  0  0  0  0  0  0
    2.5796    1.6723    1.1603 C   0  0  0  0  0  0  0  0  0  0  0  0
    3.1775    3.0034    1.6253 C   0  0  1  0  0  0  0  0  0  0  0  0
    3.0055    3.1152    2.7029 H   0  0  0  0  0  0  0  0  0  0  0  0
    4.6408    2.9161    1.4337 N   0  0  0  0  0  0  0  0  0  0  0  0
    2.5557    4.2357    0.9062 C   0  0  1  0  0  0  0  0  0  0  0  0
    2.9573    4.3224   -0.1125 H   0  0  0  0  0  0  0  0  0  0  0  0
    1.0128    4.1540    0.8008 C   0  0  1  0  0  0  0  0  0  0  0  0
    0.5546    4.3142    1.7850 H   0  0  0  0  0  0  0  0  0  0  0  0
    0.5754    5.2643    0.0000 O   0  0  0  0  0  0  0  0  0  0  0  0
    2.7985    5.4840    1.5858 O   0  0  0  0  0  0  0  0  0  0  0  0
    4.1657    5.8372    1.7230 C   0  0  2  0  0  0  0  0  0  0  0  0
    4.6631    5.0898    2.3410 H   0  0  0  0  0  0  0  0  0  0  0  0
    4.2351    7.1792    2.4751 C   0  0  2  0  0  0  0  0  0  0  0  0
    3.6682    7.1141    3.4080 H   0  0  0  0  0  0  0  0  0  0  0  0
    3.5985    8.2335    1.7363 O   0  0  0  0  0  0  0  0  0  0  0  0
    5.7200    7.5269    2.7311 C   0  0  1  0  0  0  0  0  0  0  0  0
    5.7940    8.5500    3.1230 H   0  0  0  0  0  0  0  0  0  0  0  0
    6.4117    6.6467    3.7296 N   0  0  0  0  0  0  0  0  0  0  0  0
    5.7366    6.6055    5.0236 C   0  0  0  0  0  0  0  0  0  0  0  0
    6.5231    7.4763    1.3803 C   0  0  1  0  0  0  0  0  0  0  0  0
    7.9355    7.5052    1.6680 O   0  0  0  0  0  0  0  0  0  0  0  0
    6.2043    6.1814    0.6002 C   0  0  0  0  0  0  0  0  0  0  0  0
    4.7976    5.9589    0.4491 O   0  0  0  0  0  0  0  0  0  0  0  0
    6.2431    8.6900    0.4865 C   0  0  0  0  0  0  0  0  0  0  0  0
    0.5418    0.3540    0.8972 N   0  0  0  0  0  0  0  0  0  0  0  0
   -2.9555    3.2241   -1.1601 C   0  0  2  0  0  0  0  0  0  0  0  0
   -3.5096    3.2512   -0.2169 H   0  0  0  0  0  0  0  0  0  0  0  0
   -3.1671    1.8707   -1.7261 N   0  0  0  0  0  0  0  0  0  0  0  0
   -3.5265    4.2868   -2.1094 C   0  0  0  0  0  0  0  0  0  0  0  0
   -2.6746    4.4449   -3.3655 C   0  0  0  0  0  0  0  0  0  0  0  0
   -1.1739    4.5587   -3.0837 C   0  0  2  0  0  0  0  0  0  0  0  0
   -0.6748    4.2157   -4.0001 H   0  0  0  0  0  0  0  0  0  0  0  0
   -0.7095    3.6454   -2.0840 O   0  0  0  0  0  0  0  0  0  0  0  0
   -0.6474    6.0087   -2.9079 C   0  0  0  0  0  0  0  0  0  0  0  0
   -1.1604    6.8093   -1.8051 N   0  0  0  0  0  0  0  0  0  0  0  0
    2.9172    1.4487    0.1369 H   0  0  0  0  0  0  0  0  0  0  0  0
    2.9605    0.8629    1.7965 H   0  0  0  0  0  0  0  0  0  0  0  0
    4.8623    2.8935    0.4358 H   0  0  0  0  0  0  0  0  0  0  0  0
    4.9951    2.0407    1.8225 H   0  0  0  0  0  0  0  0  0  0  0  0
    0.9906    5.1604   -0.8744 H   0  0  0  0  0  0  0  0  0  0  0  0
    2.9287    7.7995    1.1752 H   0  0  0  0  0  0  0  0  0  0  0  0
    6.4969    5.6915    3.3734 H   0  0  0  0  0  0  0  0  0  0  0  0
    5.6211    7.6049    5.4439 H   0  0  0  0  0  0  0  0  0  0  0  0
    6.3383    6.0171    5.7249 H   0  0  0  0  0  0  0  0  0  0  0  0
    4.7588    6.1166    4.9682 H   0  0  0  0  0  0  0  0  0  0  0  0
    8.0053    7.4227    2.6413 H   0  0  0  0  0  0  0  0  0  0  0  0
    6.6592    5.3049    1.0784 H   0  0  0  0  0  0  0  0  0  0  0  0
    6.6426    6.2245   -0.4042 H   0  0  0  0  0  0  0  0  0  0  0  0
    6.2738    9.6174    1.0678 H   0  0  0  0  0  0  0  0  0  0  0  0
    5.2751    8.6287   -0.0186 H   0  0  0  0  0  0  0  0  0  0  0  0
    7.0136    8.7842   -0.2877 H   0  0  0  0  0  0  0  0  0  0  0  0
   -0.4724    0.4365    0.7675 H   0  0  0  0  0  0  0  0  0  0  0  0
    0.8941    0.0303   -0.0012 H   0  0  0  0  0  0  0  0  0  0  0  0
   -2.5472    1.7483   -2.5271 H   0  0  0  0  0  0  0  0  0  0  0  0
   -4.1187    1.7802   -2.0606 H   0  0  0  0  0  0  0  0  0  0  0  0
   -3.5816    5.2444   -1.5803 H   0  0  0  0  0  0  0  0  0  0  0  0
   -4.5598    4.0501   -2.3934 H   0  0  0  0  0  0  0  0  0  0  0  0
   -3.0232    5.2956   -3.9632 H   0  0  0  0  0  0  0  0  0  0  0  0
   -2.8329    3.5544   -3.9869 H   0  0  0  0  0  0  0  0  0  0  0  0
    0.4439    5.9743   -2.8079 H   0  0  0  0  0  0  0  0  0  0  0  0
   -0.8510    6.5631   -3.8317 H   0  0  0  0  0  0  0  0  0  0  0  0
   -0.7996    6.4613   -0.9103 H   0  0  0  0  0  0  0  0  0  0  0  0
   -2.1742    6.7966   -1.7606 H   0  0  0  0  0  0  0  0  0  0  0  0
  1 33  1  6  0  0  0
  1 40  1  0  0  0  0
  1  3  1  0  0  0  0
  1  2  1  0  0  0  0
  4  6  1  1  0  0  0
  4  5  1  0  0  0  0
  4  3  1  0  0  0  0
  6  7  1  1  0  0  0
  6  8  1  0  0  0  0
  6 32  1  0  0  0  0
  8  9  1  0  0  0  0
  8 43  1  0  0  0  0
  8 44  1  0  0  0  0
  9 12  1  6  0  0  0
  9 11  1  0  0  0  0
  9 10  1  0  0  0  0
 11 45  1  0  0  0  0
 11 46  1  0  0  0  0
 12 13  1  0  0  0  0
 12 14  1  6  0  0  0
 12 17  1  0  0  0  0
 14  4  1  6  0  0  0
 14 16  1  0  0  0  0
 14 15  1  0  0  0  0
 16 47  1  0  0  0  0
 18 20  1  1  0  0  0
 18 30  1  0  0  0  0
 18 19  1  0  0  0  0
 18 17  1  0  0  0  0
 20 23  1  1  0  0  0
 20 22  1  0  0  0  0
 20 21  1  0  0  0  0
 22 48  1  0  0  0  0
 23 27  1  6  0  0  0
 23 25  1  0  0  0  0
 23 24  1  0  0  0  0
 25 26  1  0  0  0  0
 25 49  1  0  0  0  0
 26 50  1  0  0  0  0
 26 51  1  0  0  0  0
 26 52  1  0  0  0  0
 27 28  1  1  0  0  0
 27 29  1  0  0  0  0
 27 31  1  0  0  0  0
 28 53  1  0  0  0  0
 29 30  1  0  0  0  0
 29 54  1  0  0  0  0
 29 55  1  0  0  0  0
 31 56  1  0  0  0  0
 31 57  1  0  0  0  0
 31 58  1  0  0  0  0
 32 59  1  0  0  0  0
 32 60  1  0  0  0  0
 33 36  1  0  0  0  0
 33 35  1  0  0  0  0
 33 34  1  1  0  0  0
 35 61  1  0  0  0  0
 35 62  1  0  0  0  0
 36 37  1  0  0  0  0
 36 63  1  0  0  0  0
 36 64  1  0  0  0  0
 37 38  1  0  0  0  0
 37 65  1  0  0  0  0
 37 66  1  0  0  0  0
 38 40  1  0  0  0  0
 38 41  1  0  0  0  0
 38 39  1  6  0  0  0
 41 42  1  0  0  0  0
 41 67  1  0  0  0  0
 41 68  1  0  0  0  0
 42 69  1  0  0  0  0
 42 70  1  0  0  0  0
M  END
$$$$
