4LVV_FFO_A_101
 OpenBabel10091713573D
Coordinates from PDB:4LVV:A:101 Model:1 without hydrogens
 42 44  0  0  1  0  0  0  0  0999 V2000
    0.4290  -21.3520   24.5480 N   0  0  0  0  0  0  0  0  0  0  0  0
   -0.0850  -21.0170   25.7540 C   0  0  0  0  0  0  0  0  0  0  0  0
   -1.4270  -21.3840   26.0710 N   0  0  0  0  0  0  0  0  0  0  0  0
    0.6560  -20.3240   26.6700 N   0  0  0  0  0  0  0  0  0  0  0  0
    1.9350  -19.9430   26.4220 C   0  0  0  0  0  0  0  0  0  0  0  0
    2.6340  -19.2580   27.3880 O   0  0  0  0  0  0  0  0  0  0  0  0
    2.5140  -20.2870   25.1770 C   0  0  0  0  0  0  0  0  0  0  0  0
    3.8600  -19.9270   24.7620 N   0  0  0  0  0  0  0  0  0  0  0  0
    4.4930  -20.8600   23.9310 C   0  0  2  0  0  0  0  0  0  0  0  0
    3.6310  -21.0950   22.6640 C   0  0  0  0  0  0  0  0  0  0  0  0
    2.2770  -21.3730   22.9280 N   0  0  0  0  0  0  0  0  0  0  0  0
    1.7130  -20.9960   24.2270 C   0  0  0  0  0  0  0  0  0  0  0  0
    4.7240  -22.1660   24.6640 C   0  0  0  0  0  0  0  0  0  0  0  0
    5.6960  -22.1600   25.7220 N   0  0  0  0  0  0  0  0  0  0  0  0
    9.7670  -22.6540   24.7950 C   0  0  0  0  0  0  0  0  0  0  0  0
    8.8150  -22.8040   23.7960 C   0  0  0  0  0  0  0  0  0  0  0  0
    7.4700  -22.6340   24.1010 C   0  0  0  0  0  0  0  0  0  0  0  0
    7.0790  -22.3280   25.4030 C   0  0  0  0  0  0  0  0  0  0  0  0
    8.0310  -22.1900   26.3980 C   0  0  0  0  0  0  0  0  0  0  0  0
    9.3770  -22.3490   26.0910 C   0  0  0  0  0  0  0  0  0  0  0  0
   11.2170  -22.8300   24.5030 C   0  0  0  0  0  0  0  0  0  0  0  0
   11.5870  -23.2100   23.3990 O   0  0  0  0  0  0  0  0  0  0  0  0
   12.1650  -22.5630   25.5400 N   0  0  0  0  0  0  0  0  0  0  0  0
    4.4740  -18.6600   25.0790 C   0  0  0  0  0  0  0  0  0  0  0  0
    5.5950  -18.3430   24.6960 O   0  0  0  0  0  0  0  0  0  0  0  0
   -1.9683  -21.8832   25.4175 H   0  0  0  0  0  0  0  0  0  0  0  0
   -1.8116  -21.1380   26.9432 H   0  0  0  0  0  0  0  0  0  0  0  0
    0.2494  -20.0940   27.5366 H   0  0  0  0  0  0  0  0  0  0  0  0
    5.4474  -20.4726   23.6412 H   0  0  0  0  0  0  0  0  0  0  0  0
    4.0443  -21.9226   22.1263 H   0  0  0  0  0  0  0  0  0  0  0  0
    3.6531  -20.1829   22.1049 H   0  0  0  0  0  0  0  0  0  0  0  0
    1.7166  -21.8145   22.2496 H   0  0  0  0  0  0  0  0  0  0  0  0
    5.0386  -22.8898   23.9415 H   0  0  0  0  0  0  0  0  0  0  0  0
    3.7929  -22.3818   25.1450 H   0  0  0  0  0  0  0  0  0  0  0  0
    5.4123  -22.0414   26.6572 H   0  0  0  0  0  0  0  0  0  0  0  0
    9.1040  -23.0400   22.8338 H   0  0  0  0  0  0  0  0  0  0  0  0
    6.7582  -22.7347   23.3606 H   0  0  0  0  0  0  0  0  0  0  0  0
    7.7425  -21.9699   27.3641 H   0  0  0  0  0  0  0  0  0  0  0  0
   10.0892  -22.2398   26.8299 H   0  0  0  0  0  0  0  0  0  0  0  0
   11.8554  -22.2580   26.4234 H   0  0  0  0  0  0  0  0  0  0  0  0
   13.1272  -22.6842   25.3705 H   0  0  0  0  0  0  0  0  0  0  0  0
    3.9440  -17.9882   25.6559 H   0  0  0  0  0  0  0  0  0  0  0  0
  1  2  2  0  0  0  0
  1 12  1  0  0  0  0
  2  3  1  0  0  0  0
  2  4  1  0  0  0  0
  3 26  1  0  0  0  0
  3 27  1  0  0  0  0
  4  5  1  0  0  0  0
  4 28  1  0  0  0  0
  5  6  2  0  0  0  0
  5  7  1  0  0  0  0
  7  8  1  0  0  0  0
  7 12  2  0  0  0  0
  8  9  1  0  0  0  0
  8 24  1  0  0  0  0
  9 10  1  0  0  0  0
  9 13  1  0  0  0  0
  9 29  1  6  0  0  0
 10 11  1  0  0  0  0
 10 30  1  0  0  0  0
 10 31  1  0  0  0  0
 11 12  1  0  0  0  0
 11 32  1  0  0  0  0
 13 14  1  0  0  0  0
 13 33  1  0  0  0  0
 13 34  1  0  0  0  0
 14 18  1  0  0  0  0
 14 35  1  0  0  0  0
 15 16  2  0  0  0  0
 15 20  1  0  0  0  0
 15 21  1  0  0  0  0
 16 17  1  0  0  0  0
 16 36  1  0  0  0  0
 17 18  2  0  0  0  0
 17 37  1  0  0  0  0
 18 19  1  0  0  0  0
 19 20  2  0  0  0  0
 19 38  1  0  0  0  0
 20 39  1  0  0  0  0
 21 22  2  0  0  0  0
 21 23  1  0  0  0  0
 23 40  1  0  0  0  0
 23 41  1  0  0  0  0
 24 25  2  0  0  0  0
 24 42  1  0  0  0  0
M  END
$$$$
