2EES_HPA_A_90
 OpenBabel10091713573D
Coordinates from PDB:2EES:A:90 Model:1 without hydrogens
 14 15  0  0  0  0  0  0  0  0999 V2000
  -12.2870  -11.2160    9.3950 N   0  0  0  0  0  0  0  0  0  0  0  0
  -11.9280  -12.5530    9.5770 C   0  0  0  0  0  0  0  0  0  0  0  0
  -11.4210  -13.3040    8.5830 N   0  0  0  0  0  0  0  0  0  0  0  0
  -11.2940  -12.6100    7.3830 C   0  0  0  0  0  0  0  0  0  0  0  0
  -11.6310  -11.2830    7.1100 C   0  0  0  0  0  0  0  0  0  0  0  0
  -12.1800  -10.4770    8.1690 C   0  0  0  0  0  0  0  0  0  0  0  0
  -12.5410   -9.3250    8.1820 O   0  0  0  0  0  0  0  0  0  0  0  0
  -11.3220  -11.0050    5.7660 N   0  0  0  0  0  0  0  0  0  0  0  0
  -10.8060  -12.1610    5.2680 C   0  0  0  0  0  0  0  0  0  0  0  0
  -10.7780  -13.1670    6.2440 N   0  0  0  0  0  0  0  0  0  0  0  0
  -12.6454  -10.7375   10.1772 H   0  0  0  0  0  0  0  0  0  0  0  0
  -12.0563  -12.9803   10.5076 H   0  0  0  0  0  0  0  0  0  0  0  0
  -11.4517  -10.1545    5.2875 H   0  0  0  0  0  0  0  0  0  0  0  0
  -10.4776  -12.2818    4.2971 H   0  0  0  0  0  0  0  0  0  0  0  0
  1  2  1  0  0  0  0
  1  6  1  0  0  0  0
  1 11  1  0  0  0  0
  2  3  2  0  0  0  0
  2 12  1  0  0  0  0
  3  4  1  0  0  0  0
  4  5  2  0  0  0  0
  4 10  1  0  0  0  0
  5  6  1  0  0  0  0
  5  8  1  0  0  0  0
  6  7  2  0  0  0  0
  8  9  1  0  0  0  0
  8 13  1  0  0  0  0
  9 10  2  0  0  0  0
  9 14  1  0  0  0  0
M  END
$$$$
