3Q50_PRF_A_34
 OpenBabel10091713583D
Coordinates from PDB:3Q50:A:34 Model:1 without hydrogens
 22 23  0  0  0  0  0  0  0  0999 V2000
   34.2370   33.9080   23.1640 N   0  0  0  0  0  0  0  0  0  0  0  0
   33.6300   32.7720   23.7300 C   0  0  0  0  0  0  0  0  0  0  0  0
   34.0060   32.1660   24.8820 N   0  0  0  0  0  0  0  0  0  0  0  0
   35.0970   32.7970   25.4720 C   0  0  0  0  0  0  0  0  0  0  0  0
   35.7730   33.9180   24.9750 C   0  0  0  0  0  0  0  0  0  0  0  0
   35.3630   34.5330   23.7830 C   0  0  0  0  0  0  0  0  0  0  0  0
   35.8560   35.5200   23.2570 O   0  0  0  0  0  0  0  0  0  0  0  0
   36.8220   34.2520   25.8620 C   0  0  0  0  0  0  0  0  0  0  0  0
   37.7330   35.4120   25.6640 C   0  0  0  0  0  0  0  0  0  0  0  0
   38.8430   35.3780   26.6290 N   0  0  0  0  0  0  0  0  0  0  0  0
   36.7770   33.3220   26.8890 C   0  0  0  0  0  0  0  0  0  0  0  0
   35.7130   32.4160   26.6500 N   0  0  0  0  0  0  0  0  0  0  0  0
   32.5310   32.2550   23.0570 N   0  0  0  0  0  0  0  0  0  0  0  0
   33.8791   34.2794   22.3254 H   0  0  0  0  0  0  0  0  0  0  0  0
   37.1803   36.3184   25.7975 H   0  0  0  0  0  0  0  0  0  0  0  0
   38.1381   35.3638   24.6748 H   0  0  0  0  0  0  0  0  0  0  0  0
   38.4705   35.4234   27.5775 H   0  0  0  0  0  0  0  0  0  0  0  0
   39.4588   36.1749   26.4671 H   0  0  0  0  0  0  0  0  0  0  0  0
   37.4163   33.2936   27.6987 H   0  0  0  0  0  0  0  0  0  0  0  0
   35.4589   31.6540   27.2193 H   0  0  0  0  0  0  0  0  0  0  0  0
   32.2288   32.6694   22.2166 H   0  0  0  0  0  0  0  0  0  0  0  0
   32.0540   31.4741   23.4202 H   0  0  0  0  0  0  0  0  0  0  0  0
  1  2  1  0  0  0  0
  1  6  1  0  0  0  0
  1 14  1  0  0  0  0
  2  3  2  0  0  0  0
  2 13  1  0  0  0  0
  3  4  1  0  0  0  0
  4  5  2  0  0  0  0
  4 12  1  0  0  0  0
  5  6  1  0  0  0  0
  5  8  1  0  0  0  0
  6  7  2  0  0  0  0
  8  9  1  0  0  0  0
  8 11  2  0  0  0  0
  9 10  1  0  0  0  0
  9 15  1  0  0  0  0
  9 16  1  0  0  0  0
 10 17  1  0  0  0  0
 10 18  1  0  0  0  0
 11 12  1  0  0  0  0
 11 19  1  0  0  0  0
 12 20  1  0  0  0  0
 13 21  1  0  0  0  0
 13 22  1  0  0  0  0
M  END
$$$$
