2A04_NMY_A_17
 OpenBabel03221817173D

 88 91  0  0  1  0  0  0  0  0999 V2000
   -1.9407   -9.7429    1.7323 C   0  0  2  0  0  0  0  0  0  0  0  0
   -1.9730   -9.0257    2.5549 H   0  0  0  0  0  0  0  0  0  0  0  0
   -1.4766  -10.9969    2.2720 O   0  0  0  0  0  0  0  0  0  0  0  0
   -0.1114  -10.9586    2.7611 C   0  0  1  0  0  0  0  0  0  0  0  0
    0.5373  -10.5625    1.9695 H   0  0  0  0  0  0  0  0  0  0  0  0
    0.0030  -10.0818    4.0383 C   0  0  1  0  0  0  0  0  0  0  0  0
   -0.4098   -9.0985    3.8026 H   0  0  0  0  0  0  0  0  0  0  0  0
   -0.8584  -10.7067    5.1667 C   0  0  2  0  0  0  0  0  0  0  0  0
   -0.8221  -10.0899    6.0668 H   0  0  0  0  0  0  0  0  0  0  0  0
   -0.3740  -12.1333    5.5265 C   0  0  2  0  0  0  0  0  0  0  0  0
   -1.0976  -12.5657    6.2286 H   0  0  0  0  0  0  0  0  0  0  0  0
    0.9344  -12.1731    6.1956 N   0  0  0  0  0  0  0  0  0  0  0  0
   -0.3641  -13.0257    4.2762 C   0  0  0  0  0  0  0  0  0  0  0  0
    0.3457  -12.4248    3.0411 C   0  0  2  0  0  0  0  0  0  0  0  0
    0.0494  -13.0452    2.1857 H   0  0  0  0  0  0  0  0  0  0  0  0
    1.8103  -12.5365    3.1427 N   0  0  0  0  0  0  0  0  0  0  0  0
   -2.2487  -10.7187    4.8063 O   0  0  0  0  0  0  0  0  0  0  0  0
    1.3879   -9.8911    4.4066 O   0  0  0  0  0  0  0  0  0  0  0  0
    1.5165   -8.9307    5.4546 C   0  0  1  0  0  0  0  0  0  0  0  0
    0.9475   -9.2643    6.3257 H   0  0  0  0  0  0  0  0  0  0  0  0
    2.9515   -8.6939    5.9075 C   0  0  1  0  0  0  0  0  0  0  0  0
    3.6130   -8.5383    5.0476 H   0  0  0  0  0  0  0  0  0  0  0  0
    2.7524   -7.4090    6.7230 C   0  0  1  0  0  0  0  0  0  0  0  0
    3.6934   -6.8740    6.8685 H   0  0  0  0  0  0  0  0  0  0  0  0
    1.6983   -6.6715    5.8757 C   0  0  2  0  0  0  0  0  0  0  0  0
    0.9039   -6.2215    6.4662 H   0  0  0  0  0  0  0  0  0  0  0  0
    1.0435   -7.6530    5.0373 O   0  0  0  0  0  0  0  0  0  0  0  0
    2.3179   -5.6054    4.9773 C   0  0  0  0  0  0  0  0  0  0  0  0
    3.2252   -6.1912    4.0467 O   0  0  0  0  0  0  0  0  0  0  0  0
    2.2396   -7.8000    8.0243 O   0  0  0  0  0  0  0  0  0  0  0  0
    2.2160   -6.7227    8.9774 C   0  0  2  0  0  0  0  0  0  0  0  0
    3.2300   -6.3017    9.0239 H   0  0  0  0  0  0  0  0  0  0  0  0
    1.8163   -7.2582   10.3883 C   0  0  1  0  0  0  0  0  0  0  0  0
    2.5824   -7.9784   10.7079 H   0  0  0  0  0  0  0  0  0  0  0  0
    1.7692   -6.0684   11.3854 C   0  0  2  0  0  0  0  0  0  0  0  0
    1.3492   -6.4287   12.3310 H   0  0  0  0  0  0  0  0  0  0  0  0
    0.8924   -4.9151   10.8664 C   0  0  1  0  0  0  0  0  0  0  0  0
    1.0091   -4.0301   11.5042 H   0  0  0  0  0  0  0  0  0  0  0  0
    1.2986   -4.5450    9.4206 C   0  0  1  0  0  0  0  0  0  0  0  0
    2.3215   -4.1323    9.4278 H   0  0  0  0  0  0  0  0  0  0  0  0
    1.3042   -5.7036    8.5792 O   0  0  0  0  0  0  0  0  0  0  0  0
    0.3524   -3.4838    8.8205 C   0  0  0  0  0  0  0  0  0  0  0  0
    0.7426   -3.0635    7.4708 N   0  0  0  0  0  0  0  0  0  0  0  0
   -0.4900   -5.2875   10.9009 O   0  0  0  0  0  0  0  0  0  0  0  0
    3.0852   -5.6067   11.7140 O   0  0  0  0  0  0  0  0  0  0  0  0
    0.5264   -7.9896   10.3602 N   0  0  0  0  0  0  0  0  0  0  0  0
    3.4882   -9.7654    6.6939 O   0  0  0  0  0  0  0  0  0  0  0  0
   -3.4108   -9.8789    1.2120 C   0  0  2  0  0  0  0  0  0  0  0  0
   -4.0475  -10.1101    2.0752 H   0  0  0  0  0  0  0  0  0  0  0  0
   -3.5857  -10.9972    0.2578 N   0  0  0  0  0  0  0  0  0  0  0  0
   -3.8537   -8.5304    0.5866 C   0  0  1  0  0  0  0  0  0  0  0  0
   -4.7959   -8.6987    0.0494 H   0  0  0  0  0  0  0  0  0  0  0  0
   -4.1663   -7.5279    1.5581 O   0  0  0  0  0  0  0  0  0  0  0  0
   -2.8183   -7.9863   -0.4128 C   0  0  2  0  0  0  0  0  0  0  0  0
   -3.0806   -6.9687   -0.7259 H   0  0  0  0  0  0  0  0  0  0  0  0
   -2.8216   -8.8054   -1.5957 O   0  0  0  0  0  0  0  0  0  0  0  0
   -1.3894   -7.9897    0.1664 C   0  0  2  0  0  0  0  0  0  0  0  0
   -0.6932   -7.8641   -0.6727 H   0  0  0  0  0  0  0  0  0  0  0  0
   -1.0547   -9.2702    0.7255 O   0  0  0  0  0  0  0  0  0  0  0  0
   -1.1176   -6.8307    1.1570 C   0  0  0  0  0  0  0  0  0  0  0  0
    0.2644   -6.8322    1.6659 N   0  0  0  0  0  0  0  0  0  0  0  0
    0.9066  -11.6143    7.0465 H   0  0  0  0  0  0  0  0  0  0  0  0
    1.6454  -11.7298    5.6046 H   0  0  0  0  0  0  0  0  0  0  0  0
   -1.4059  -13.2376    4.0005 H   0  0  0  0  0  0  0  0  0  0  0  0
    0.0642  -14.0076    4.5218 H   0  0  0  0  0  0  0  0  0  0  0  0
    2.0593  -13.2840    3.7922 H   0  0  0  0  0  0  0  0  0  0  0  0
    2.1991  -11.6774    3.5388 H   0  0  0  0  0  0  0  0  0  0  0  0
   -2.3315  -11.2138    3.9649 H   0  0  0  0  0  0  0  0  0  0  0  0
    1.5448   -5.0849    4.4029 H   0  0  0  0  0  0  0  0  0  0  0  0
    2.8662   -4.8686    5.5731 H   0  0  0  0  0  0  0  0  0  0  0  0
    2.6608   -6.6906    3.4228 H   0  0  0  0  0  0  0  0  0  0  0  0
    0.3432   -2.6028    9.4731 H   0  0  0  0  0  0  0  0  0  0  0  0
   -0.6711   -3.8726    8.7626 H   0  0  0  0  0  0  0  0  0  0  0  0
    1.7473   -2.9238    7.4047 H   0  0  0  0  0  0  0  0  0  0  0  0
    0.2994   -2.1676    7.2552 H   0  0  0  0  0  0  0  0  0  0  0  0
   -0.7122   -5.5470   11.8127 H   0  0  0  0  0  0  0  0  0  0  0  0
    3.5380   -5.2586   10.9288 H   0  0  0  0  0  0  0  0  0  0  0  0
   -0.1706   -7.3702    9.9252 H   0  0  0  0  0  0  0  0  0  0  0  0
    0.1934   -8.1572   11.3087 H   0  0  0  0  0  0  0  0  0  0  0  0
    3.0936   -9.6659    7.5789 H   0  0  0  0  0  0  0  0  0  0  0  0
   -2.9539  -10.8396   -0.5339 H   0  0  0  0  0  0  0  0  0  0  0  0
   -4.5304  -10.9974   -0.1231 H   0  0  0  0  0  0  0  0  0  0  0  0
   -3.7573   -7.7338    2.4160 H   0  0  0  0  0  0  0  0  0  0  0  0
   -3.7044   -8.7408   -2.0000 H   0  0  0  0  0  0  0  0  0  0  0  0
   -1.3072   -5.8713    0.6645 H   0  0  0  0  0  0  0  0  0  0  0  0
   -1.7714   -6.8768    2.0304 H   0  0  0  0  0  0  0  0  0  0  0  0
    0.9064   -6.8445    0.8683 H   0  0  0  0  0  0  0  0  0  0  0  0
    0.4337   -7.7190    2.1399 H   0  0  0  0  0  0  0  0  0  0  0  0
  1 48  1  6  0  0  0
  1 59  1  0  0  0  0
  1  3  1  0  0  0  0
  1  2  1  0  0  0  0
  3  4  1  0  0  0  0
  4  5  1  0  0  0  0
  4  6  1  1  0  0  0
  6  8  1  1  0  0  0
  6 18  1  0  0  0  0
  6  7  1  0  0  0  0
  8 10  1  1  0  0  0
  8 17  1  0  0  0  0
  8  9  1  0  0  0  0
 10 11  1  1  0  0  0
 10 12  1  0  0  0  0
 10 13  1  0  0  0  0
 12 62  1  0  0  0  0
 12 63  1  0  0  0  0
 13 14  1  0  0  0  0
 13 64  1  0  0  0  0
 13 65  1  0  0  0  0
 14 15  1  0  0  0  0
 14  4  1  6  0  0  0
 14 16  1  0  0  0  0
 16 66  1  0  0  0  0
 16 67  1  0  0  0  0
 17 68  1  0  0  0  0
 18 19  1  0  0  0  0
 19 20  1  0  0  0  0
 19 21  1  1  0  0  0
 19 27  1  0  0  0  0
 21 23  1  1  0  0  0
 21 47  1  0  0  0  0
 21 22  1  0  0  0  0
 23 24  1  0  0  0  0
 23 25  1  6  0  0  0
 23 30  1  0  0  0  0
 25 27  1  0  0  0  0
 25 28  1  0  0  0  0
 25 26  1  1  0  0  0
 28 29  1  0  0  0  0
 28 69  1  0  0  0  0
 28 70  1  0  0  0  0
 29 71  1  0  0  0  0
 31 41  1  0  0  0  0
 31 32  1  1  0  0  0
 31 30  1  0  0  0  0
 33 31  1  6  0  0  0
 33 46  1  0  0  0  0
 33 34  1  0  0  0  0
 35 33  1  6  0  0  0
 35 45  1  0  0  0  0
 35 36  1  0  0  0  0
 37 35  1  1  0  0  0
 37 38  1  0  0  0  0
 37 44  1  0  0  0  0
 39 37  1  1  0  0  0
 39 40  1  0  0  0  0
 39 41  1  0  0  0  0
 39 42  1  0  0  0  0
 42 43  1  0  0  0  0
 42 72  1  0  0  0  0
 42 73  1  0  0  0  0
 43 74  1  0  0  0  0
 43 75  1  0  0  0  0
 44 76  1  0  0  0  0
 45 77  1  0  0  0  0
 46 78  1  0  0  0  0
 46 79  1  0  0  0  0
 47 80  1  0  0  0  0
 48 51  1  6  0  0  0
 48 50  1  0  0  0  0
 48 49  1  0  0  0  0
 50 81  1  0  0  0  0
 50 82  1  0  0  0  0
 51 54  1  6  0  0  0
 51 53  1  0  0  0  0
 51 52  1  0  0  0  0
 53 83  1  0  0  0  0
 54 55  1  0  0  0  0
 54 56  1  0  0  0  0
 54 57  1  1  0  0  0
 56 84  1  0  0  0  0
 57 59  1  0  0  0  0
 57 60  1  0  0  0  0
 57 58  1  6  0  0  0
 60 61  1  0  0  0  0
 60 85  1  0  0  0  0
 60 86  1  0  0  0  0
 61 87  1  0  0  0  0
 61 88  1  0  0  0  0
M  END
$$$$
