1RAW_AMP_A_37
 OpenBabel03221817013D

 37 39  0  0  1  0  0  0  0  0999 V2000
    1.2441   -0.8913    0.7995 P   0  0  0  0  0  0  0  0  0  0  0  0
    0.9577   -2.2997    0.4023 O   0  0  0  0  0  0  0  0  0  0  0  0
    1.0648   -0.6993    2.3757 O   0  0  0  0  0  0  0  0  0  0  0  0
    0.1634    0.1181    0.1911 O   0  0  0  0  0  0  0  0  0  0  0  0
    2.6923   -0.3432    0.4314 O   0  0  0  0  0  0  0  0  0  0  0  0
    3.1410    0.9195    0.9031 C   0  0  0  0  0  0  0  0  0  0  0  0
    4.6777    0.9384    0.9126 C   0  0  1  0  0  0  0  0  0  0  0  0
    5.0286    0.1474    1.5890 H   0  0  0  0  0  0  0  0  0  0  0  0
    5.2238    0.6517   -0.3903 O   0  0  0  0  0  0  0  0  0  0  0  0
    6.5861    1.1206   -0.3518 C   0  0  2  0  0  0  0  0  0  0  0  0
    7.2158    0.3530    0.1169 H   0  0  0  0  0  0  0  0  0  0  0  0
    6.5469    2.4171    0.4659 C   0  0  1  0  0  0  0  0  0  0  0  0
    6.4668    3.2960   -0.1847 H   0  0  0  0  0  0  0  0  0  0  0  0
    5.2636    2.2958    1.2977 C   0  0  2  0  0  0  0  0  0  0  0  0
    4.5822    3.1070    1.0189 H   0  0  0  0  0  0  0  0  0  0  0  0
    5.5016    2.3870    2.6973 O   0  0  0  0  0  0  0  0  0  0  0  0
    7.6911    2.6040    1.3051 O   0  0  0  0  0  0  0  0  0  0  0  0
    7.0790    1.3011   -1.7047 N   0  0  0  0  0  0  0  0  0  0  0  0
    6.4281    0.9735   -2.8647 C   0  0  0  0  0  0  0  0  0  0  0  0
    7.1448    1.2568   -3.9319 N   0  0  0  0  0  0  0  0  0  0  0  0
    8.3232    1.7721   -3.4378 C   0  0  0  0  0  0  0  0  0  0  0  0
    9.4832    2.2430   -4.0746 C   0  0  0  0  0  0  0  0  0  0  0  0
    9.6210    2.2880   -5.4561 N   0  0  0  0  0  0  0  0  0  0  0  0
   10.5162    2.6531   -3.3053 N   0  0  0  0  0  0  0  0  0  0  0  0
   10.3667    2.6235   -1.9619 C   0  0  0  0  0  0  0  0  0  0  0  0
    9.2938    2.2240   -1.2350 N   0  0  0  0  0  0  0  0  0  0  0  0
    8.3099    1.7966   -2.0508 C   0  0  0  0  0  0  0  0  0  0  0  0
    0.9293   -1.5646    2.8050 H   0  0  0  0  0  0  0  0  0  0  0  0
   -0.5701   -0.3949   -0.2001 H   0  0  0  0  0  0  0  0  0  0  0  0
    2.7717    1.1002    1.9191 H   0  0  0  0  0  0  0  0  0  0  0  0
    2.7446    1.6996    0.2432 H   0  0  0  0  0  0  0  0  0  0  0  0
    6.3937    2.7849    2.7901 H   0  0  0  0  0  0  0  0  0  0  0  0
    8.4715    2.6332    0.7093 H   0  0  0  0  0  0  0  0  0  0  0  0
    5.4388    0.5315   -2.8742 H   0  0  0  0  0  0  0  0  0  0  0  0
    8.9731    1.6788   -5.9453 H   0  0  0  0  0  0  0  0  0  0  0  0
   10.5866    2.2841   -5.7545 H   0  0  0  0  0  0  0  0  0  0  0  0
   11.2284    2.9669   -1.3940 H   0  0  0  0  0  0  0  0  0  0  0  0
  1  2  2  0  0  0  0
  1  3  1  0  0  0  0
  1  4  1  0  0  0  0
  1  5  1  0  0  0  0
  3 28  1  0  0  0  0
  4 29  1  0  0  0  0
  5  6  1  0  0  0  0
  6  7  1  0  0  0  0
  6 30  1  0  0  0  0
  6 31  1  0  0  0  0
  7  8  1  0  0  0  0
  7  9  1  0  0  0  0
  7 14  1  1  0  0  0
  9 10  1  0  0  0  0
 10 12  1  1  0  0  0
 10 18  1  0  0  0  0
 10 11  1  0  0  0  0
 12 13  1  0  0  0  0
 12 14  1  1  0  0  0
 12 17  1  0  0  0  0
 14 15  1  6  0  0  0
 14 16  1  0  0  0  0
 16 32  1  0  0  0  0
 17 33  1  0  0  0  0
 18 19  1  0  0  0  0
 18 27  1  0  0  0  0
 19 20  2  0  0  0  0
 19 34  1  0  0  0  0
 20 21  1  0  0  0  0
 21 22  2  0  0  0  0
 21 27  1  0  0  0  0
 22 23  1  0  0  0  0
 22 24  1  0  0  0  0
 23 35  1  0  0  0  0
 23 36  1  0  0  0  0
 24 25  2  0  0  0  0
 25 26  1  0  0  0  0
 25 37  1  0  0  0  0
 26 27  2  0  0  0  0
M  END
$$$$
