ligands/ligand.pdb
 OpenBabel10091713573D

 69 71  0  0  1  0  0  0  0  0999 V2000
   -2.3010    5.4450    2.9530 C   0  0  2  0  0  0  0  0  0  0  0  0
   -1.4870    4.6550    1.9310 C   0  0  1  0  0  0  0  0  0  0  0  0
   -1.3840    3.2010    2.3710 C   0  0  2  0  0  0  0  0  0  0  0  0
   -0.7970    3.1380    3.7760 C   0  0  1  0  0  0  0  0  0  0  0  0
   -1.6390    3.9830    4.7280 C   0  0  1  0  0  0  0  0  0  0  0  0
   -1.0610    4.0230    6.1290 C   0  0  0  0  0  0  0  0  0  0  0  0
   -2.1150    4.7270    0.6590 O   0  0  0  0  0  0  0  0  0  0  0  0
   -0.5940    2.4060    1.4060 N   0  0  0  0  0  0  0  0  0  0  0  0
   -0.7610    1.7890    4.2220 O   0  0  0  0  0  0  0  0  0  0  0  0
   -1.7060    5.3450    4.2530 O   0  0  0  0  0  0  0  0  0  0  0  0
    0.2590    4.5480    6.1310 O   0  0  0  0  0  0  0  0  0  0  0  0
   -6.4940    9.6120    3.2220 C   0  0  1  0  0  0  0  0  0  0  0  0
   -6.7460   10.1770    4.6210 C   0  0  1  0  0  0  0  0  0  0  0  0
   -8.2380   10.3600    4.8550 C   0  0  0  0  0  0  0  0  0  0  0  0
   -8.8150   11.2310    3.7510 C   0  0  1  0  0  0  0  0  0  0  0  0
   -8.5030   10.6120    2.3890 C   0  0  1  0  0  0  0  0  0  0  0  0
   -9.0000   11.4610    1.2330 C   0  0  0  0  0  0  0  0  0  0  0  0
   -6.1210    9.3260    5.6610 N   0  0  0  0  0  0  0  0  0  0  0  0
   -8.3680   12.8020    1.2330 N   0  0  0  0  0  0  0  0  0  0  0  0
   -7.0610    8.3500    3.1040 O   0  0  0  0  0  0  0  0  0  0  0  0
  -10.2200   11.3560    3.9160 O   0  0  0  0  0  0  0  0  0  0  0  0
   -7.0760   10.4620    2.2260 O   0  0  0  0  0  0  0  0  0  0  0  0
   -5.5270    4.6680    1.6000 C   0  0  2  0  0  0  0  0  0  0  0  0
   -6.5540    5.4260    0.7700 C   0  0  0  0  0  0  0  0  0  0  0  0
   -7.3220    6.4170    1.6450 C   0  0  1  0  0  0  0  0  0  0  0  0
   -6.3480    7.4120    2.2720 C   0  0  2  0  0  0  0  0  0  0  0  0
   -5.3030    6.6670    3.1040 C   0  0  1  0  0  0  0  0  0  0  0  0
   -4.5590    5.6570    2.2310 C   0  0  1  0  0  0  0  0  0  0  0  0
   -4.7580    3.7310    0.7520 N   0  0  0  0  0  0  0  0  0  0  0  0
   -8.3770    7.0880    0.8420 N   0  0  0  0  0  0  0  0  0  0  0  0
   -4.3820    7.5940    3.6630 O   0  0  0  0  0  0  0  0  0  0  0  0
   -3.5890    4.9480    3.0230 O   0  0  0  0  0  0  0  0  0  0  0  0
   -2.3189    6.4684    2.6413 H   0  0  0  0  0  0  0  0  0  0  0  0
   -0.5047    5.0737    1.8630 H   0  0  0  0  0  0  0  0  0  0  0  0
   -2.3626    2.7689    2.3935 H   0  0  0  0  0  0  0  0  0  0  0  0
    0.2002    3.5254    3.7589 H   0  0  0  0  0  0  0  0  0  0  0  0
   -2.6073    3.5287    4.7593 H   0  0  0  0  0  0  0  0  0  0  0  0
   -1.0410    3.0295    6.5257 H   0  0  0  0  0  0  0  0  0  0  0  0
   -1.6772    4.6595    6.7291 H   0  0  0  0  0  0  0  0  0  0  0  0
   -3.0062    4.3483    0.7165 H   0  0  0  0  0  0  0  0  0  0  0  0
    0.3524    2.7822    1.3498 H   0  0  0  0  0  0  0  0  0  0  0  0
   -1.0335    2.4525    0.4867 H   0  0  0  0  0  0  0  0  0  0  0  0
   -1.6621    1.4303    4.2403 H   0  0  0  0  0  0  0  0  0  0  0  0
    0.8327    3.9825    5.5907 H   0  0  0  0  0  0  0  0  0  0  0  0
   -5.4355    9.5540    3.0766 H   0  0  0  0  0  0  0  0  0  0  0  0
   -6.2848   11.1400    4.6900 H   0  0  0  0  0  0  0  0  0  0  0  0
   -8.3963   10.8317    5.8023 H   0  0  0  0  0  0  0  0  0  0  0  0
   -8.7220    9.4057    4.8494 H   0  0  0  0  0  0  0  0  0  0  0  0
   -8.3719   12.2035    3.8042 H   0  0  0  0  0  0  0  0  0  0  0  0
   -9.0045    9.6670    2.3706 H   0  0  0  0  0  0  0  0  0  0  0  0
  -10.0604   11.5764    1.3171 H   0  0  0  0  0  0  0  0  0  0  0  0
   -8.7418   10.9681    0.3191 H   0  0  0  0  0  0  0  0  0  0  0  0
   -6.5335    8.3936    5.6305 H   0  0  0  0  0  0  0  0  0  0  0  0
   -6.2815    9.7389    6.5798 H   0  0  0  0  0  0  0  0  0  0  0  0
   -8.6030   13.2886    2.0981 H   0  0  0  0  0  0  0  0  0  0  0  0
   -8.7108   13.3394    0.4367 H   0  0  0  0  0  0  0  0  0  0  0  0
  -10.6304   10.4784    3.8691 H   0  0  0  0  0  0  0  0  0  0  0  0
   -6.0446    4.1150    2.3558 H   0  0  0  0  0  0  0  0  0  0  0  0
   -7.2424    4.7293    0.3393 H   0  0  0  0  0  0  0  0  0  0  0  0
   -6.0457    5.9662   -0.0012 H   0  0  0  0  0  0  0  0  0  0  0  0
   -7.8113    5.8995    2.4436 H   0  0  0  0  0  0  0  0  0  0  0  0
   -5.8537    7.9497    1.4900 H   0  0  0  0  0  0  0  0  0  0  0  0
   -5.7977    6.1428    3.8948 H   0  0  0  0  0  0  0  0  0  0  0  0
   -4.0616    6.1909    1.4484 H   0  0  0  0  0  0  0  0  0  0  0  0
   -4.2628    4.2542    0.0298 H   0  0  0  0  0  0  0  0  0  0  0  0
   -5.3963    3.0671    0.3136 H   0  0  0  0  0  0  0  0  0  0  0  0
   -7.9455    7.5935    0.0683 H   0  0  0  0  0  0  0  0  0  0  0  0
   -8.8889    7.7432    1.4328 H   0  0  0  0  0  0  0  0  0  0  0  0
   -3.9309    8.0718    2.9495 H   0  0  0  0  0  0  0  0  0  0  0  0
  1  2  1  0  0  0  0
  1 10  1  0  0  0  0
  1 32  1  0  0  0  0
  1 33  1  6  0  0  0
  2  3  1  0  0  0  0
  2  7  1  0  0  0  0
  2 34  1  6  0  0  0
  3  4  1  0  0  0  0
  3  8  1  0  0  0  0
  3 35  1  1  0  0  0
  4  5  1  0  0  0  0
  4  9  1  0  0  0  0
  4 36  1  6  0  0  0
  5  6  1  0  0  0  0
  5 10  1  0  0  0  0
  5 37  1  1  0  0  0
  6 11  1  0  0  0  0
  6 38  1  0  0  0  0
  6 39  1  0  0  0  0
  7 40  1  0  0  0  0
  8 41  1  0  0  0  0
  8 42  1  0  0  0  0
  9 43  1  0  0  0  0
 11 44  1  0  0  0  0
 12 13  1  0  0  0  0
 12 20  1  0  0  0  0
 12 22  1  0  0  0  0
 12 45  1  6  0  0  0
 13 14  1  0  0  0  0
 13 18  1  0  0  0  0
 13 46  1  1  0  0  0
 14 15  1  0  0  0  0
 14 47  1  0  0  0  0
 14 48  1  0  0  0  0
 15 16  1  0  0  0  0
 15 21  1  0  0  0  0
 15 49  1  1  0  0  0
 16 17  1  0  0  0  0
 16 22  1  0  0  0  0
 16 50  1  6  0  0  0
 17 19  1  0  0  0  0
 17 51  1  0  0  0  0
 17 52  1  0  0  0  0
 18 53  1  0  0  0  0
 18 54  1  0  0  0  0
 19 55  1  0  0  0  0
 19 56  1  0  0  0  0
 21 57  1  0  0  0  0
 23 24  1  0  0  0  0
 23 28  1  0  0  0  0
 23 29  1  0  0  0  0
 23 58  1  1  0  0  0
 24 25  1  0  0  0  0
 24 59  1  0  0  0  0
 24 60  1  0  0  0  0
 25 26  1  0  0  0  0
 25 30  1  0  0  0  0
 25 61  1  1  0  0  0
 26 27  1  0  0  0  0
 26 20  1  0  0  0  0
 26 62  1  6  0  0  0
 27 28  1  0  0  0  0
 27 31  1  0  0  0  0
 27 63  1  1  0  0  0
 28 32  1  0  0  0  0
 28 64  1  6  0  0  0
 29 65  1  0  0  0  0
 29 66  1  0  0  0  0
 30 67  1  0  0  0  0
 30 68  1  0  0  0  0
 31 69  1  0  0  0  0
M  END
$$$$
