4LVW_7DG_A_101
 OpenBabel03221817313D

 17 18  0  0  0  0  0  0  0  0999 V2000
   -1.4460    1.1447   -0.0065 N   0  0  0  0  0  0  0  0  0  0  0  0
   -2.2391    0.1164   -0.0071 C   0  0  0  0  0  0  0  0  0  0  0  0
   -1.5986   -1.2496   -0.0077 C   0  0  0  0  0  0  0  0  0  0  0  0
   -0.2230   -0.7341   -0.0077 C   0  0  0  0  0  0  0  0  0  0  0  0
    1.0305   -1.4568   -0.0057 C   0  0  0  0  0  0  0  0  0  0  0  0
    1.0874   -2.6787   -0.0060 O   0  0  0  0  0  0  0  0  0  0  0  0
    2.1346   -0.6461    0.0002 N   0  0  0  0  0  0  0  0  0  0  0  0
    3.0285   -1.1067    0.0077 H   0  0  0  0  0  0  0  0  0  0  0  0
    2.0550    0.7200    0.0096 C   0  0  0  0  0  0  0  0  0  0  0  0
    3.2230    1.3961    0.0311 N   0  0  0  0  0  0  0  0  0  0  0  0
    0.9280    1.3615    0.0026 N   0  0  0  0  0  0  0  0  0  0  0  0
   -0.1951    0.5950   -0.0053 C   0  0  0  0  0  0  0  0  0  0  0  0
   -3.3354    0.2096   -0.0069 H   0  0  0  0  0  0  0  0  0  0  0  0
   -1.8694   -1.7982   -0.9114 H   0  0  0  0  0  0  0  0  0  0  0  0
   -1.8695   -1.7989    0.8956 H   0  0  0  0  0  0  0  0  0  0  0  0
    4.1294    0.9616   -0.0289 H   0  0  0  0  0  0  0  0  0  0  0  0
    3.1688    2.4070   -0.0117 H   0  0  0  0  0  0  0  0  0  0  0  0
  1  2  2  0  0  0  0
  1 12  1  0  0  0  0
  2  3  1  0  0  0  0
  2 13  1  0  0  0  0
  3  4  1  0  0  0  0
  3 14  1  0  0  0  0
  3 15  1  0  0  0  0
  4  5  1  0  0  0  0
  4 12  2  0  0  0  0
  5  6  2  0  0  0  0
  5  7  1  0  0  0  0
  7  8  1  0  0  0  0
  7  9  1  0  0  0  0
  9 10  1  0  0  0  0
  9 11  2  0  0  0  0
 10 16  1  0  0  0  0
 10 17  1  0  0  0  0
 11 12  1  0  0  0  0
M  END
$$$$
