ligands/ligand.pdb
 OpenBabel03221817013D

 69 71  0  0  1  0  0  0  0  0999 V2000
    4.5375    4.1260    0.1727 C   0  0  2  0  0  0  0  0  0  0  0  0
    4.8483    3.0795    0.1552 H   0  0  0  0  0  0  0  0  0  0  0  0
    5.6300    5.0247    0.8170 C   0  0  1  0  0  0  0  0  0  0  0  0
    5.8559    4.6750    1.8296 H   0  0  0  0  0  0  0  0  0  0  0  0
    6.9154    5.0461   -0.0281 C   0  0  2  0  0  0  0  0  0  0  0  0
    7.5729    5.8337    0.3645 H   0  0  0  0  0  0  0  0  0  0  0  0
    6.5640    5.4243   -1.4871 C   0  0  1  0  0  0  0  0  0  0  0  0
    7.4557    5.3267   -2.1238 H   0  0  0  0  0  0  0  0  0  0  0  0
    5.4246    4.5628   -2.0637 C   0  0  1  0  0  0  0  0  0  0  0  0
    5.0321    5.0529   -2.9630 H   0  0  0  0  0  0  0  0  0  0  0  0
    5.9181    3.1661   -2.5037 C   0  0  0  0  0  0  0  0  0  0  0  0
    4.9158    2.4389   -3.1973 O   0  0  0  0  0  0  0  0  0  0  0  0
    4.2855    4.5129   -1.1854 O   0  0  0  0  0  0  0  0  0  0  0  0
    6.1997    6.8128   -1.5915 O   0  0  0  0  0  0  0  0  0  0  0  0
    7.6506    3.7739    0.0767 N   0  0  0  0  0  0  0  0  0  0  0  0
    5.1918    6.3894    0.9656 O   0  0  0  0  0  0  0  0  0  0  0  0
    3.2828    4.2483    0.8650 O   0  0  0  0  0  0  0  0  0  0  0  0
    3.2016    3.7031    2.1946 C   0  0  1  0  0  0  0  0  0  0  0  0
    3.9271    4.2422    2.8163 H   0  0  0  0  0  0  0  0  0  0  0  0
    1.7882    4.0445    2.7797 C   0  0  1  0  0  0  0  0  0  0  0  0
    1.5355    5.0716    2.4872 H   0  0  0  0  0  0  0  0  0  0  0  0
    0.6958    3.1347    2.1877 C   0  0  0  0  0  0  0  0  0  0  0  0
    0.9905    1.6260    2.2190 C   0  0  1  0  0  0  0  0  0  0  0  0
    0.2045    1.1539    1.6107 H   0  0  0  0  0  0  0  0  0  0  0  0
    2.3781    1.2997    1.6384 C   0  0  1  0  0  0  0  0  0  0  0  0
    2.6284    0.2661    1.9114 H   0  0  0  0  0  0  0  0  0  0  0  0
    2.3994    1.4093    0.2068 O   0  0  0  0  0  0  0  0  0  0  0  0
    2.0046    0.1834   -0.4379 C   0  0  2  0  0  0  0  0  0  0  0  0
    2.5580   -0.6217    0.0541 H   0  0  0  0  0  0  0  0  0  0  0  0
    2.4193    0.1740   -1.9368 C   0  0  1  0  0  0  0  0  0  0  0  0
    3.4637    0.4879   -2.0206 H   0  0  0  0  0  0  0  0  0  0  0  0
    2.2798   -1.2855   -2.3934 C   0  0  0  0  0  0  0  0  0  0  0  0
    0.8742   -1.8383   -2.1442 C   0  0  1  0  0  0  0  0  0  0  0  0
    0.8994   -2.9347   -2.1539 H   0  0  0  0  0  0  0  0  0  0  0  0
    0.1723   -1.3319   -0.8510 C   0  0  1  0  0  0  0  0  0  0  0  0
   -0.8826   -1.1617   -1.1063 H   0  0  0  0  0  0  0  0  0  0  0  0
    0.1316   -2.3857    0.2779 C   0  0  0  0  0  0  0  0  0  0  0  0
    1.4415   -2.8225    0.7743 N   0  0  0  0  0  0  0  0  0  0  0  0
    0.6046   -0.0587   -0.3426 O   0  0  0  0  0  0  0  0  0  0  0  0
    0.0579   -1.4693   -3.2729 O   0  0  0  0  0  0  0  0  0  0  0  0
    1.6256    1.0657   -2.8109 N   0  0  0  0  0  0  0  0  0  0  0  0
    3.4773    2.1865    2.2831 C   0  0  2  0  0  0  0  0  0  0  0  0
    4.4323    1.9604    1.7962 H   0  0  0  0  0  0  0  0  0  0  0  0
    3.6631    1.8270    3.6702 O   0  0  0  0  0  0  0  0  0  0  0  0
    0.8357    1.0329    3.5646 N   0  0  0  0  0  0  0  0  0  0  0  0
    1.7552    4.0365    4.2526 N   0  0  0  0  0  0  0  0  0  0  0  0
    6.7680    3.2843   -3.1919 H   0  0  0  0  0  0  0  0  0  0  0  0
    6.2496    2.5501   -1.6664 H   0  0  0  0  0  0  0  0  0  0  0  0
    4.0524    2.6956   -2.8104 H   0  0  0  0  0  0  0  0  0  0  0  0
    6.1736    7.1961   -0.6932 H   0  0  0  0  0  0  0  0  0  0  0  0
    8.4820    3.8094   -0.5176 H   0  0  0  0  0  0  0  0  0  0  0  0
    8.0095    3.6752    1.0280 H   0  0  0  0  0  0  0  0  0  0  0  0
    4.2633    6.4045    0.6497 H   0  0  0  0  0  0  0  0  0  0  0  0
    0.5482    3.4286    1.1405 H   0  0  0  0  0  0  0  0  0  0  0  0
   -0.2692    3.3376    2.6791 H   0  0  0  0  0  0  0  0  0  0  0  0
    3.0022   -1.8890   -1.8281 H   0  0  0  0  0  0  0  0  0  0  0  0
    2.5579   -1.3751   -3.4495 H   0  0  0  0  0  0  0  0  0  0  0  0
   -0.4405   -1.9872    1.1255 H   0  0  0  0  0  0  0  0  0  0  0  0
   -0.4086   -3.2667   -0.0865 H   0  0  0  0  0  0  0  0  0  0  0  0
    1.6528   -2.2617    1.6046 H   0  0  0  0  0  0  0  0  0  0  0  0
    1.3447   -3.7729    1.1372 H   0  0  0  0  0  0  0  0  0  0  0  0
    0.4535   -1.8806   -4.0624 H   0  0  0  0  0  0  0  0  0  0  0  0
    0.6508    0.7438   -2.7920 H   0  0  0  0  0  0  0  0  0  0  0  0
    1.9239    0.9543   -3.7784 H   0  0  0  0  0  0  0  0  0  0  0  0
    3.9078    0.8832    3.6905 H   0  0  0  0  0  0  0  0  0  0  0  0
   -0.0623    1.3151    3.9556 H   0  0  0  0  0  0  0  0  0  0  0  0
    1.5515    1.4213    4.1802 H   0  0  0  0  0  0  0  0  0  0  0  0
    2.2952    3.2410    4.6080 H   0  0  0  0  0  0  0  0  0  0  0  0
    0.7986    3.9442    4.5945 H   0  0  0  0  0  0  0  0  0  0  0  0
  1  3  1  1  0  0  0
  1 13  1  0  0  0  0
  1 17  1  0  0  0  0
  1  2  1  0  0  0  0
  3  5  1  6  0  0  0
  3 16  1  0  0  0  0
  3  4  1  0  0  0  0
  5  7  1  6  0  0  0
  5 15  1  0  0  0  0
  5  6  1  0  0  0  0
  7  8  1  6  0  0  0
  7 14  1  0  0  0  0
  9  7  1  1  0  0  0
  9 13  1  0  0  0  0
  9 11  1  0  0  0  0
  9 10  1  0  0  0  0
 11 12  1  0  0  0  0
 11 47  1  0  0  0  0
 11 48  1  0  0  0  0
 12 49  1  0  0  0  0
 14 50  1  0  0  0  0
 15 51  1  0  0  0  0
 15 52  1  0  0  0  0
 16 53  1  0  0  0  0
 17 18  1  0  0  0  0
 18 19  1  0  0  0  0
 18 20  1  1  0  0  0
 20 22  1  0  0  0  0
 20 46  1  0  0  0  0
 20 21  1  6  0  0  0
 22 23  1  0  0  0  0
 22 54  1  0  0  0  0
 22 55  1  0  0  0  0
 23 24  1  0  0  0  0
 23 25  1  6  0  0  0
 23 45  1  0  0  0  0
 25 42  1  1  0  0  0
 25 27  1  0  0  0  0
 25 26  1  0  0  0  0
 28 30  1  6  0  0  0
 28 39  1  0  0  0  0
 28 29  1  0  0  0  0
 28 27  1  0  0  0  0
 30 32  1  0  0  0  0
 30 41  1  0  0  0  0
 30 31  1  6  0  0  0
 32 33  1  0  0  0  0
 32 56  1  0  0  0  0
 32 57  1  0  0  0  0
 33 34  1  0  0  0  0
 33 35  1  1  0  0  0
 33 40  1  0  0  0  0
 35 39  1  0  0  0  0
 35 37  1  0  0  0  0
 35 36  1  6  0  0  0
 37 38  1  0  0  0  0
 37 58  1  0  0  0  0
 37 59  1  0  0  0  0
 38 60  1  0  0  0  0
 38 61  1  0  0  0  0
 40 62  1  0  0  0  0
 41 63  1  0  0  0  0
 41 64  1  0  0  0  0
 42 43  1  0  0  0  0
 42 18  1  6  0  0  0
 42 44  1  0  0  0  0
 44 65  1  0  0  0  0
 45 66  1  0  0  0  0
 45 67  1  0  0  0  0
 46 68  1  0  0  0  0
 46 69  1  0  0  0  0
M  END
$$$$
