4LVV_FFO_A_101
 OpenBabel03221817313D

 42 44  0  0  1  0  0  0  0  0999 V2000
    1.2848   -1.3399   -0.0267 N   0  0  0  0  0  0  0  0  0  0  0  0
    2.4011   -0.6976   -0.0581 C   0  0  0  0  0  0  0  0  0  0  0  0
    3.5735   -1.3618   -0.1780 N   0  0  0  0  0  0  0  0  0  0  0  0
    2.4726    0.6520    0.0251 N   0  0  0  0  0  0  0  0  0  0  0  0
    3.3553    1.1268   -0.0562 H   0  0  0  0  0  0  0  0  0  0  0  0
    1.3649    1.4442    0.0493 C   0  0  0  0  0  0  0  0  0  0  0  0
    1.4860    2.6663    0.0196 O   0  0  0  0  0  0  0  0  0  0  0  0
    0.0502    0.7310    0.0600 C   0  0  0  0  0  0  0  0  0  0  0  0
   -1.1842    1.4103    0.0397 N   0  0  0  0  0  0  0  0  0  0  0  0
   -2.3749    0.6179   -0.3750 C   0  0  2  0  0  0  0  0  0  0  0  0
   -3.2875    1.1420   -0.0628 H   0  0  0  0  0  0  0  0  0  0  0  0
   -2.3465   -0.7560    0.3216 C   0  0  0  0  0  0  0  0  0  0  0  0
   -1.0632   -1.3752    0.0370 N   0  0  0  0  0  0  0  0  0  0  0  0
    0.1127   -0.6311    0.0292 C   0  0  0  0  0  0  0  0  0  0  0  0
   -2.4267    0.4101   -1.9115 C   0  0  0  0  0  0  0  0  0  0  0  0
   -2.6105    1.6639   -2.6240 N   0  0  0  0  0  0  0  0  0  0  0  0
   -3.0619    1.7105   -3.9307 C   0  0  0  0  0  0  0  0  0  0  0  0
   -3.5883    2.9151   -4.4050 C   0  0  0  0  0  0  0  0  0  0  0  0
   -4.2503    2.9803   -5.6348 C   0  0  0  0  0  0  0  0  0  0  0  0
   -4.3872    1.8375   -6.4310 C   0  0  0  0  0  0  0  0  0  0  0  0
   -3.8121    0.6413   -5.9949 C   0  0  0  0  0  0  0  0  0  0  0  0
   -3.1690    0.5829   -4.7519 C   0  0  0  0  0  0  0  0  0  0  0  0
   -5.1773    1.9561   -7.6899 C   0  0  0  0  0  0  0  0  0  0  0  0
   -5.6730    3.0200   -8.0382 O   0  0  0  0  0  0  0  0  0  0  0  0
   -5.3670    0.8378   -8.4537 N   0  0  0  0  0  0  0  0  0  0  0  0
   -1.3685    2.7502    0.3335 C   0  0  0  0  0  0  0  0  0  0  0  0
   -2.4338    3.3528    0.2426 O   0  0  0  0  0  0  0  0  0  0  0  0
    3.4749   -2.3622   -0.0375 H   0  0  0  0  0  0  0  0  0  0  0  0
    4.3926   -0.9664    0.2601 H   0  0  0  0  0  0  0  0  0  0  0  0
   -3.1621   -1.3972   -0.0283 H   0  0  0  0  0  0  0  0  0  0  0  0
   -2.4569   -0.6332    1.4055 H   0  0  0  0  0  0  0  0  0  0  0  0
   -0.9083   -2.3341    0.3324 H   0  0  0  0  0  0  0  0  0  0  0  0
   -1.5189   -0.0796   -2.2818 H   0  0  0  0  0  0  0  0  0  0  0  0
   -3.2745   -0.2537   -2.1239 H   0  0  0  0  0  0  0  0  0  0  0  0
   -2.1018    2.4771   -2.2859 H   0  0  0  0  0  0  0  0  0  0  0  0
   -3.5408    3.8073   -3.7839 H   0  0  0  0  0  0  0  0  0  0  0  0
   -4.6909    3.9247   -5.9477 H   0  0  0  0  0  0  0  0  0  0  0  0
   -3.8629   -0.2691   -6.5794 H   0  0  0  0  0  0  0  0  0  0  0  0
   -2.7514   -0.3702   -4.4373 H   0  0  0  0  0  0  0  0  0  0  0  0
   -5.0470   -0.0877   -8.2225 H   0  0  0  0  0  0  0  0  0  0  0  0
   -5.9476    0.9481   -9.2747 H   0  0  0  0  0  0  0  0  0  0  0  0
   -0.4833    3.2671    0.7202 H   0  0  0  0  0  0  0  0  0  0  0  0
  1  2  2  0  0  0  0
  1 14  1  0  0  0  0
  2  3  1  0  0  0  0
  2  4  1  0  0  0  0
  3 28  1  0  0  0  0
  3 29  1  0  0  0  0
  4  5  1  0  0  0  0
  4  6  1  0  0  0  0
  6  7  2  0  0  0  0
  6  8  1  0  0  0  0
  8  9  1  0  0  0  0
  8 14  2  0  0  0  0
  9 10  1  0  0  0  0
  9 26  1  0  0  0  0
 10 12  1  0  0  0  0
 10 15  1  0  0  0  0
 10 11  1  1  0  0  0
 12 13  1  0  0  0  0
 12 30  1  0  0  0  0
 12 31  1  0  0  0  0
 13 14  1  0  0  0  0
 13 32  1  0  0  0  0
 15 16  1  0  0  0  0
 15 33  1  0  0  0  0
 15 34  1  0  0  0  0
 16 17  1  0  0  0  0
 16 35  1  0  0  0  0
 17 18  2  0  0  0  0
 17 22  1  0  0  0  0
 18 19  1  0  0  0  0
 18 36  1  0  0  0  0
 19 20  2  0  0  0  0
 19 37  1  0  0  0  0
 20 21  1  0  0  0  0
 20 23  1  0  0  0  0
 21 22  2  0  0  0  0
 21 38  1  0  0  0  0
 22 39  1  0  0  0  0
 23 24  2  0  0  0  0
 23 25  1  0  0  0  0
 25 40  1  0  0  0  0
 25 41  1  0  0  0  0
 26 27  2  0  0  0  0
 26 42  1  0  0  0  0
M  END
$$$$
