3D2G_TPP_A_83
 OpenBabel03221817293D

 45 46  0  0  0  0  0  0  0  0999 V2000
   -0.7064   -1.7618   -3.6228 N   0  0  0  0  0  0  0  0  0  0  0  0
    0.6268   -1.9060   -3.6466 C   0  0  0  0  0  0  0  0  0  0  0  0
    1.3711   -1.3844   -4.8376 C   0  0  0  0  0  0  0  0  0  0  0  0
    1.3346   -2.4422   -2.6385 N   0  0  0  0  0  0  0  0  0  0  0  0
    0.6782   -2.7246   -1.5071 C   0  0  0  0  0  0  0  0  0  0  0  0
    1.4455   -3.3637   -0.5358 N   0  0  0  0  0  0  0  0  0  0  0  0
   -0.6721   -2.4643   -1.3266 C   0  0  0  0  0  0  0  0  0  0  0  0
   -1.3273   -2.0581   -2.4698 C   0  0  0  0  0  0  0  0  0  0  0  0
   -1.3058   -2.5846    0.0263 C   0  0  0  0  0  0  0  0  0  0  0  0
   -2.7729   -2.4153    0.0408 N   0  3  0  0  0  0  0  0  0  0  0  0
   -3.5383   -3.4870   -0.0929 C   0  0  0  0  0  0  0  0  0  0  0  0
   -5.1951   -3.0921   -0.0306 S   0  0  0  0  0  0  0  0  0  0  0  0
   -4.8531   -1.4108    0.1397 C   0  0  0  0  0  0  0  0  0  0  0  0
   -3.4794   -1.2213    0.2429 C   0  0  0  0  0  0  0  0  0  0  0  0
   -2.7715    0.0659    0.4679 C   0  0  0  0  0  0  0  0  0  0  0  0
   -5.9953   -0.4157    0.0541 C   0  0  0  0  0  0  0  0  0  0  0  0
   -6.1896   -0.0208   -1.4124 C   0  0  0  0  0  0  0  0  0  0  0  0
   -7.2394    0.9247   -1.6757 O   0  0  0  0  0  0  0  0  0  0  0  0
   -7.3975    1.3569   -3.3434 P   0  0  1  0  0  0  0  0  0  0  0  0
   -5.8854    1.2527   -3.5822 O   0  0  0  0  0  0  0  0  0  0  0  0
   -8.0668   -0.1132   -3.6571 O   0  0  0  0  0  0  0  0  0  0  0  0
   -7.5555    1.7891   -5.0111 O   0  0  0  0  0  0  0  0  0  0  0  0
   -8.3785    3.3054   -5.1383 P   0  0  0  0  0  0  0  0  0  0  0  0
   -8.5110    3.4758   -3.6279 O   0  0  0  0  0  0  0  0  0  0  0  0
   -7.0123    4.0314   -5.6208 O   0  0  0  0  0  0  0  0  0  0  0  0
   -9.2015    4.8218   -5.2655 O   0  0  0  0  0  0  0  0  0  0  0  0
    0.7786   -0.6220   -5.3557 H   0  0  0  0  0  0  0  0  0  0  0  0
    1.5934   -2.1951   -5.5354 H   0  0  0  0  0  0  0  0  0  0  0  0
    2.3103   -0.9164   -4.5228 H   0  0  0  0  0  0  0  0  0  0  0  0
    2.3714   -3.4928   -0.9487 H   0  0  0  0  0  0  0  0  0  0  0  0
    1.5468   -2.8683    0.3394 H   0  0  0  0  0  0  0  0  0  0  0  0
   -2.4045   -1.9323   -2.5256 H   0  0  0  0  0  0  0  0  0  0  0  0
   -0.8499   -1.8476    0.6952 H   0  0  0  0  0  0  0  0  0  0  0  0
   -1.0781   -3.5694    0.4559 H   0  0  0  0  0  0  0  0  0  0  0  0
   -3.1748   -4.4984   -0.2295 H   0  0  0  0  0  0  0  0  0  0  0  0
   -3.3874    0.7343    1.0773 H   0  0  0  0  0  0  0  0  0  0  0  0
   -2.5679    0.5671   -0.4824 H   0  0  0  0  0  0  0  0  0  0  0  0
   -1.8318   -0.0564    1.0106 H   0  0  0  0  0  0  0  0  0  0  0  0
   -5.7747    0.4737    0.6557 H   0  0  0  0  0  0  0  0  0  0  0  0
   -6.9233   -0.8344    0.4620 H   0  0  0  0  0  0  0  0  0  0  0  0
   -6.3731   -0.9181   -2.0135 H   0  0  0  0  0  0  0  0  0  0  0  0
   -5.2306    0.4093   -1.7184 H   0  0  0  0  0  0  0  0  0  0  0  0
   -9.0351   -0.1142   -3.5307 H   0  0  0  0  0  0  0  0  0  0  0  0
   -6.4927    4.3742   -4.8740 H   0  0  0  0  0  0  0  0  0  0  0  0
  -10.1501    4.7151   -5.0756 H   0  0  0  0  0  0  0  0  0  0  0  0
  1  2  2  0  0  0  0
  1  8  1  0  0  0  0
  2  3  1  0  0  0  0
  2  4  1  0  0  0  0
  3 27  1  0  0  0  0
  3 28  1  0  0  0  0
  3 29  1  0  0  0  0
  4  5  2  0  0  0  0
  5  6  1  0  0  0  0
  5  7  1  0  0  0  0
  6 30  1  0  0  0  0
  6 31  1  0  0  0  0
  7  8  2  0  0  0  0
  7  9  1  0  0  0  0
  8 32  1  0  0  0  0
  9 10  1  0  0  0  0
  9 33  1  0  0  0  0
  9 34  1  0  0  0  0
 10 11  2  0  0  0  0
 10 14  1  0  0  0  0
 11 12  1  0  0  0  0
 11 35  1  0  0  0  0
 12 13  1  0  0  0  0
 13 14  2  0  0  0  0
 13 16  1  0  0  0  0
 14 15  1  0  0  0  0
 15 36  1  0  0  0  0
 15 37  1  0  0  0  0
 15 38  1  0  0  0  0
 16 17  1  0  0  0  0
 16 39  1  0  0  0  0
 16 40  1  0  0  0  0
 17 18  1  0  0  0  0
 17 41  1  0  0  0  0
 17 42  1  0  0  0  0
 18 19  1  0  0  0  0
 19 20  2  6  0  0  0
 19 21  1  0  0  0  0
 19 22  1  0  0  0  0
 21 43  1  0  0  0  0
 22 23  1  0  0  0  0
 23 24  2  0  0  0  0
 23 25  1  0  0  0  0
 23 26  1  0  0  0  0
 25 44  1  0  0  0  0
 26 45  1  0  0  0  0
M  CHG  1  10   1
M  END
$$$$
