3GLP_GOL_A_10
 OpenBabel03221817303D

 14 13  0  0  0  0  0  0  0  0999 V2000
    0.9990   -0.0946   -0.0039 C   0  0  0  0  0  0  0  0  0  0  0  0
    0.4030    0.9152    0.8081 O   0  0  0  0  0  0  0  0  0  0  0  0
    2.5247    0.0486    0.0158 C   0  0  0  0  0  0  0  0  0  0  0  0
    2.8375    1.3932   -0.3826 O   0  0  0  0  0  0  0  0  0  0  0  0
    3.1236   -0.2397    1.3972 C   0  0  0  0  0  0  0  0  0  0  0  0
    4.5487   -0.0632    1.3253 O   0  0  0  0  0  0  0  0  0  0  0  0
    0.6213    0.0334   -1.0172 H   0  0  0  0  0  0  0  0  0  0  0  0
    0.6892   -1.0790    0.3668 H   0  0  0  0  0  0  0  0  0  0  0  0
    0.7463    1.7518    0.4454 H   0  0  0  0  0  0  0  0  0  0  0  0
    2.9739   -0.6246   -0.7232 H   0  0  0  0  0  0  0  0  0  0  0  0
    3.5146    1.7171    0.2415 H   0  0  0  0  0  0  0  0  0  0  0  0
    2.9025   -1.2572    1.7330 H   0  0  0  0  0  0  0  0  0  0  0  0
    2.7560    0.4715    2.1454 H   0  0  0  0  0  0  0  0  0  0  0  0
    4.8886   -0.7006    0.6756 H   0  0  0  0  0  0  0  0  0  0  0  0
  1  2  1  0  0  0  0
  1  3  1  0  0  0  0
  1  7  1  0  0  0  0
  1  8  1  0  0  0  0
  2  9  1  0  0  0  0
  3  4  1  0  0  0  0
  3  5  1  0  0  0  0
  3 10  1  0  0  0  0
  4 11  1  0  0  0  0
  5  6  1  0  0  0  0
  5 12  1  0  0  0  0
  5 13  1  0  0  0  0
  6 14  1  0  0  0  0
M  END
$$$$
