2O3X_N30_B_1
 OpenBabel10091713573D
Coordinates from PDB:2O3X:B:1 Model:1 without hydrogens
 65 67  0  0  1  0  0  0  0  0999 V2000
   20.3660    9.3240    5.6650 C   0  0  2  0  0  0  0  0  0  0  0  0
   21.2440    8.2520    5.2970 O   0  0  0  0  0  0  0  0  0  0  0  0
   18.9460    9.0160    5.0930 C   0  0  2  0  0  0  0  0  0  0  0  0
   18.5110    7.6280    5.3930 N   0  0  0  0  0  0  0  0  0  0  0  0
   18.8940    9.2120    3.5660 C   0  0  1  0  0  0  0  0  0  0  0  0
   17.5960    8.9790    3.0810 O   0  0  0  0  0  0  0  0  0  0  0  0
   19.3500   10.6180    3.2140 C   0  0  2  0  0  0  0  0  0  0  0  0
   19.2820   10.8050    1.8370 O   0  0  0  0  0  0  0  0  0  0  0  0
   20.8040   10.8450    3.7160 C   0  0  2  0  0  0  0  0  0  0  0  0
   20.8640   10.6330    5.1430 O   0  0  0  0  0  0  0  0  0  0  0  0
   21.3100   12.2360    3.4120 C   0  0  0  0  0  0  0  0  0  0  0  0
   22.6900   12.2760    3.3680 O   0  0  0  0  0  0  0  0  0  0  0  0
   24.6070    6.2840    7.0620 C   0  0  2  0  0  0  0  0  0  0  0  0
   25.8320    5.9870    7.8370 N   0  0  0  0  0  0  0  0  0  0  0  0
   24.8810    7.2820    5.8880 C   0  0  0  0  0  0  0  0  0  0  0  0
   23.5330    7.5090    5.1110 C   0  0  2  0  0  0  0  0  0  0  0  0
   23.7140    8.4400    3.9570 N   0  0  0  0  0  0  0  0  0  0  0  0
   22.4510    8.1020    6.0580 C   0  0  2  0  0  0  0  0  0  0  0  0
   22.1820    7.2280    7.2990 C   0  0  2  0  0  0  0  0  0  0  0  0
   21.3410    8.0550    8.1780 O   0  0  0  0  0  0  0  0  0  0  0  0
   23.5520    6.8610    8.0230 C   0  0  1  0  0  0  0  0  0  0  0  0
   23.3560    5.8740    9.0470 O   0  0  0  0  0  0  0  0  0  0  0  0
   20.6740    7.4380    9.2900 C   0  0  1  0  0  0  0  0  0  0  0  0
   20.1540    8.4770   10.3370 C   0  0  2  0  0  0  0  0  0  0  0  0
   21.0820    8.8310   11.3990 O   0  0  0  0  0  0  0  0  0  0  0  0
   18.8940    7.7440   10.7660 C   0  0  2  0  0  0  0  0  0  0  0  0
   19.2050    6.6730   11.7220 O   0  0  0  0  0  0  0  0  0  0  0  0
   18.3270    7.1720    9.4720 C   0  0  2  0  0  0  0  0  0  0  0  0
   19.5200    6.7190    8.8380 O   0  0  0  0  0  0  0  0  0  0  0  0
   17.5790    8.2070    8.5650 C   0  0  0  0  0  0  0  0  0  0  0  0
   16.4820    8.7760    9.2740 N   0  0  0  0  0  0  0  0  0  0  0  0
   20.3262    9.3999    6.7316 H   0  0  0  0  0  0  0  0  0  0  0  0
   18.2854    9.7077    5.5726 H   0  0  0  0  0  0  0  0  0  0  0  0
   19.1405    6.9682    4.9361 H   0  0  0  0  0  0  0  0  0  0  0  0
   17.5616    7.4871    5.0477 H   0  0  0  0  0  0  0  0  0  0  0  0
   19.5522    8.5065    3.1035 H   0  0  0  0  0  0  0  0  0  0  0  0
   16.9808    9.6090    3.4879 H   0  0  0  0  0  0  0  0  0  0  0  0
   18.7062   11.3264    3.6920 H   0  0  0  0  0  0  0  0  0  0  0  0
   19.8631   10.1664    1.3949 H   0  0  0  0  0  0  0  0  0  0  0  0
   21.4267   10.1454    3.1986 H   0  0  0  0  0  0  0  0  0  0  0  0
   20.9672   12.9046    4.1739 H   0  0  0  0  0  0  0  0  0  0  0  0
   20.9357   12.5264    2.4526 H   0  0  0  0  0  0  0  0  0  0  0  0
   23.0487   12.0153    4.2307 H   0  0  0  0  0  0  0  0  0  0  0  0
   24.2524    5.3775    6.6177 H   0  0  0  0  0  0  0  0  0  0  0  0
   26.1795    6.8449    8.2657 H   0  0  0  0  0  0  0  0  0  0  0  0
   26.5441    5.6054    7.2143 H   0  0  0  0  0  0  0  0  0  0  0  0
   25.6152    6.8709    5.2271 H   0  0  0  0  0  0  0  0  0  0  0  0
   25.2477    8.2114    6.2711 H   0  0  0  0  0  0  0  0  0  0  0  0
   23.2190    6.5541    4.7442 H   0  0  0  0  0  0  0  0  0  0  0  0
   24.0135    9.3527    4.3002 H   0  0  0  0  0  0  0  0  0  0  0  0
   22.8302    8.5379    3.4573 H   0  0  0  0  0  0  0  0  0  0  0  0
   22.8070    9.0401    6.4296 H   0  0  0  0  0  0  0  0  0  0  0  0
   21.7059    6.3041    7.0449 H   0  0  0  0  0  0  0  0  0  0  0  0
   23.8990    7.7876    8.4304 H   0  0  0  0  0  0  0  0  0  0  0  0
   23.0424    5.0488    8.6449 H   0  0  0  0  0  0  0  0  0  0  0  0
   21.4015    6.7982    9.7442 H   0  0  0  0  0  0  0  0  0  0  0  0
   19.9990    9.4667    9.9609 H   0  0  0  0  0  0  0  0  0  0  0  0
   21.3489    8.0295   11.8756 H   0  0  0  0  0  0  0  0  0  0  0  0
   18.2005    8.3888   11.2641 H   0  0  0  0  0  0  0  0  0  0  0  0
   19.8346    6.0539   11.3204 H   0  0  0  0  0  0  0  0  0  0  0  0
   17.5743    6.4332    9.6520 H   0  0  0  0  0  0  0  0  0  0  0  0
   17.2156    7.7121    7.6887 H   0  0  0  0  0  0  0  0  0  0  0  0
   18.2587    8.9855    8.2879 H   0  0  0  0  0  0  0  0  0  0  0  0
   15.8303    8.0382    9.5410 H   0  0  0  0  0  0  0  0  0  0  0  0
   16.0049    9.4514    8.6769 H   0  0  0  0  0  0  0  0  0  0  0  0
  1  3  1  0  0  0  0
  1 10  1  0  0  0  0
  1  2  1  0  0  0  0
  1 32  1  1  0  0  0
  2 18  1  0  0  0  0
  3  5  1  0  0  0  0
  3  4  1  0  0  0  0
  3 33  1  1  0  0  0
  4 34  1  0  0  0  0
  4 35  1  0  0  0  0
  5  6  1  0  0  0  0
  5  7  1  0  0  0  0
  5 36  1  6  0  0  0
  6 37  1  0  0  0  0
  7  8  1  0  0  0  0
  7  9  1  0  0  0  0
  7 38  1  1  0  0  0
  8 39  1  0  0  0  0
  9 11  1  0  0  0  0
  9 10  1  0  0  0  0
  9 40  1  6  0  0  0
 11 12  1  0  0  0  0
 11 41  1  0  0  0  0
 11 42  1  0  0  0  0
 12 43  1  0  0  0  0
 13 15  1  0  0  0  0
 13 14  1  0  0  0  0
 13 21  1  0  0  0  0
 13 44  1  6  0  0  0
 14 45  1  0  0  0  0
 14 46  1  0  0  0  0
 15 16  1  0  0  0  0
 15 47  1  0  0  0  0
 15 48  1  0  0  0  0
 16 17  1  0  0  0  0
 16 18  1  0  0  0  0
 16 49  1  6  0  0  0
 17 50  1  0  0  0  0
 17 51  1  0  0  0  0
 18 19  1  0  0  0  0
 18 52  1  1  0  0  0
 19 21  1  0  0  0  0
 19 20  1  0  0  0  0
 19 53  1  6  0  0  0
 20 23  1  0  0  0  0
 21 22  1  0  0  0  0
 21 54  1  1  0  0  0
 22 55  1  0  0  0  0
 23 29  1  0  0  0  0
 23 24  1  0  0  0  0
 23 56  1  1  0  0  0
 24 26  1  0  0  0  0
 24 25  1  0  0  0  0
 24 57  1  6  0  0  0
 25 58  1  0  0  0  0
 26 28  1  0  0  0  0
 26 27  1  0  0  0  0
 26 59  1  1  0  0  0
 27 60  1  0  0  0  0
 28 30  1  0  0  0  0
 28 29  1  0  0  0  0
 28 61  1  1  0  0  0
 30 31  1  0  0  0  0
 30 62  1  0  0  0  0
 30 63  1  0  0  0  0
 31 64  1  0  0  0  0
 31 65  1  0  0  0  0
M  END
$$$$
