3SKL_GNG_A_120
 OpenBabel03221817313D

 32 34  0  0  1  0  0  0  0  0999 V2000
    1.1229   -0.1909   -0.4338 O   0  0  0  0  0  0  0  0  0  0  0  0
    2.4178    0.0582    0.1143 C   0  0  0  0  0  0  0  0  0  0  0  0
    2.9741   -1.1893    0.8021 C   0  0  1  0  0  0  0  0  0  0  0  0
    3.9489   -0.9349    1.2367 H   0  0  0  0  0  0  0  0  0  0  0  0
    2.1160   -1.6013    1.8835 O   0  0  0  0  0  0  0  0  0  0  0  0
    2.3695   -3.0059    2.0763 C   0  0  1  0  0  0  0  0  0  0  0  0
    3.2217   -3.0991    2.7606 H   0  0  0  0  0  0  0  0  0  0  0  0
    1.2382   -3.6523    2.7151 N   0  0  0  0  0  0  0  0  0  0  0  0
    1.1900   -4.9897    3.0541 C   0  0  0  0  0  0  0  0  0  0  0  0
    0.0308   -5.3299    3.5850 N   0  0  0  0  0  0  0  0  0  0  0  0
   -0.6976   -4.1605    3.6219 C   0  0  0  0  0  0  0  0  0  0  0  0
    0.0436   -3.1381    3.0960 C   0  0  0  0  0  0  0  0  0  0  0  0
   -0.4101   -1.8811    3.0298 N   0  0  0  0  0  0  0  0  0  0  0  0
    0.1712   -1.1155    2.7031 H   0  0  0  0  0  0  0  0  0  0  0  0
   -1.6489   -1.6461    3.5686 C   0  0  0  0  0  0  0  0  0  0  0  0
   -2.4443   -2.5400    4.0814 N   0  0  0  0  0  0  0  0  0  0  0  0
   -2.0537   -3.8854    4.1236 C   0  0  0  0  0  0  0  0  0  0  0  0
   -2.7879   -4.7702    4.5509 O   0  0  0  0  0  0  0  0  0  0  0  0
   -2.0042   -0.3376    3.5577 N   0  0  0  0  0  0  0  0  0  0  0  0
    2.6916   -3.5831    0.7053 C   0  0  0  0  0  0  0  0  0  0  0  0
    3.1011   -2.3905   -0.1316 C   0  0  2  0  0  0  0  0  0  0  0  0
    2.4646   -2.3048   -1.0183 H   0  0  0  0  0  0  0  0  0  0  0  0
    4.4473   -2.5353   -0.5738 O   0  0  0  0  0  0  0  0  0  0  0  0
    0.8384    0.6331   -0.8673 H   0  0  0  0  0  0  0  0  0  0  0  0
    2.3170    0.8744    0.8371 H   0  0  0  0  0  0  0  0  0  0  0  0
    3.0793    0.3754   -0.6980 H   0  0  0  0  0  0  0  0  0  0  0  0
    2.0188   -5.6644    2.8846 H   0  0  0  0  0  0  0  0  0  0  0  0
   -1.7268    0.1868    2.7387 H   0  0  0  0  0  0  0  0  0  0  0  0
   -2.9880   -0.2187    3.7765 H   0  0  0  0  0  0  0  0  0  0  0  0
    1.8044   -4.0474    0.2570 H   0  0  0  0  0  0  0  0  0  0  0  0
    3.4604   -4.3605    0.7734 H   0  0  0  0  0  0  0  0  0  0  0  0
    4.4690   -3.2701   -1.2137 H   0  0  0  0  0  0  0  0  0  0  0  0
  1  2  1  0  0  0  0
  1 24  1  0  0  0  0
  2  3  1  0  0  0  0
  2 25  1  0  0  0  0
  2 26  1  0  0  0  0
  3  4  1  0  0  0  0
  3  5  1  0  0  0  0
  3 21  1  6  0  0  0
  5  6  1  0  0  0  0
  6 20  1  0  0  0  0
  6  8  1  0  0  0  0
  6  7  1  1  0  0  0
  8  9  1  0  0  0  0
  8 12  1  0  0  0  0
  9 10  2  0  0  0  0
  9 27  1  0  0  0  0
 10 11  1  0  0  0  0
 11 12  2  0  0  0  0
 11 17  1  0  0  0  0
 12 13  1  0  0  0  0
 13 14  1  0  0  0  0
 13 15  1  0  0  0  0
 15 16  2  0  0  0  0
 15 19  1  0  0  0  0
 16 17  1  0  0  0  0
 17 18  2  0  0  0  0
 19 28  1  0  0  0  0
 19 29  1  0  0  0  0
 20 21  1  0  0  0  0
 20 30  1  0  0  0  0
 20 31  1  0  0  0  0
 21 22  1  6  0  0  0
 21 23  1  0  0  0  0
 23 32  1  0  0  0  0
M  END
$$$$
