2MXS_PAR_A_101
 OpenBabel03221817253D

 87 90  0  0  1  0  0  0  0  0999 V2000
    4.8919   16.3779    3.0372 C   0  0  2  0  0  0  0  0  0  0  0  0
    4.5270   16.6568    4.0263 H   0  0  0  0  0  0  0  0  0  0  0  0
    3.7775   16.2405    2.1595 O   0  0  0  0  0  0  0  0  0  0  0  0
    2.7076   15.3652    2.5997 C   0  0  2  0  0  0  0  0  0  0  0  0
    1.8667   15.6375    1.9469 H   0  0  0  0  0  0  0  0  0  0  0  0
    2.2303   15.5956    4.0818 C   0  0  2  0  0  0  0  0  0  0  0  0
    3.0741   15.4433    4.7607 H   0  0  0  0  0  0  0  0  0  0  0  0
    1.1365   14.6142    4.5379 C   0  0  0  0  0  0  0  0  0  0  0  0
    1.5287   13.1673    4.2247 C   0  0  1  0  0  0  0  0  0  0  0  0
    2.4724   12.9385    4.7387 H   0  0  0  0  0  0  0  0  0  0  0  0
    0.5718   12.1939    4.7595 N   0  0  0  0  0  0  0  0  0  0  0  0
    1.7412   13.0371    2.6949 C   0  0  1  0  0  0  0  0  0  0  0  0
    0.8754   13.4231    2.1482 H   0  0  0  0  0  0  0  0  0  0  0  0
    3.0041   13.8594    2.3474 C   0  0  1  0  0  0  0  0  0  0  0  0
    3.7898   13.5490    3.0502 H   0  0  0  0  0  0  0  0  0  0  0  0
    3.5805   13.5044    1.0900 O   0  0  0  0  0  0  0  0  0  0  0  0
    3.0306   14.0150   -0.1066 C   0  0  1  0  0  0  0  0  0  0  0  0
    2.8824   15.0959   -0.0295 H   0  0  0  0  0  0  0  0  0  0  0  0
    4.0537   13.6969   -1.2085 C   0  0  2  0  0  0  0  0  0  0  0  0
    4.3584   12.6468   -1.1455 H   0  0  0  0  0  0  0  0  0  0  0  0
    5.2509   14.4683   -1.1009 O   0  0  0  0  0  0  0  0  0  0  0  0
    3.2207   13.9334   -2.4558 C   0  0  2  0  0  0  0  0  0  0  0  0
    3.6133   13.4602   -3.3608 H   0  0  0  0  0  0  0  0  0  0  0  0
    2.9902   15.3332   -2.7245 O   0  0  0  0  0  0  0  0  0  0  0  0
    4.1092   16.1098   -3.1790 C   0  0  2  0  0  0  0  0  0  0  0  0
    4.9185   16.0501   -2.4565 H   0  0  0  0  0  0  0  0  0  0  0  0
    3.6612   17.5969   -3.2488 C   0  0  2  0  0  0  0  0  0  0  0  0
    3.2402   17.8853   -2.2764 H   0  0  0  0  0  0  0  0  0  0  0  0
    2.5979   17.7823   -4.2727 N   0  0  0  0  0  0  0  0  0  0  0  0
    4.9080   18.4602   -3.5492 C   0  0  1  0  0  0  0  0  0  0  0  0
    4.5805   19.4966   -3.6903 H   0  0  0  0  0  0  0  0  0  0  0  0
    5.7921   18.5042   -2.4184 O   0  0  0  0  0  0  0  0  0  0  0  0
    5.6303   17.9802   -4.8199 C   0  0  2  0  0  0  0  0  0  0  0  0
    6.6183   18.4534   -4.8886 H   0  0  0  0  0  0  0  0  0  0  0  0
    4.8949   18.3994   -5.9789 O   0  0  0  0  0  0  0  0  0  0  0  0
    5.8178   16.4363   -4.8200 C   0  0  1  0  0  0  0  0  0  0  0  0
    6.5829   16.1727   -4.0812 H   0  0  0  0  0  0  0  0  0  0  0  0
    4.6020   15.7277   -4.4697 O   0  0  0  0  0  0  0  0  0  0  0  0
    6.2934   15.9706   -6.2190 C   0  0  0  0  0  0  0  0  0  0  0  0
    6.6664   14.5565   -6.2721 N   0  0  0  0  0  0  0  0  0  0  0  0
    1.8636   13.3267   -1.9921 C   0  0  2  0  0  0  0  0  0  0  0  0
    1.0217   13.9217   -2.3647 H   0  0  0  0  0  0  0  0  0  0  0  0
    1.8163   13.4024   -0.5308 O   0  0  0  0  0  0  0  0  0  0  0  0
    1.6325   11.8617   -2.3868 C   0  0  0  0  0  0  0  0  0  0  0  0
    2.6539   10.9982   -1.8970 O   0  0  0  0  0  0  0  0  0  0  0  0
    1.8798   11.6648    2.3075 O   0  0  0  0  0  0  0  0  0  0  0  0
    1.7341   16.9645    4.2987 N   0  0  0  0  0  0  0  0  0  0  0  0
    5.7950   17.5472    2.5424 C   0  0  2  0  0  0  0  0  0  0  0  0
    5.1927   18.4635    2.5075 H   0  0  0  0  0  0  0  0  0  0  0  0
    6.3461   17.3239    1.1757 N   0  0  0  0  0  0  0  0  0  0  0  0
    6.9419   17.7218    3.5665 C   0  0  1  0  0  0  0  0  0  0  0  0
    7.6351   18.4926    3.2125 H   0  0  0  0  0  0  0  0  0  0  0  0
    6.4225   18.1723    4.8253 O   0  0  0  0  0  0  0  0  0  0  0  0
    7.7012   16.3967    3.7768 C   0  0  2  0  0  0  0  0  0  0  0  0
    8.3956   16.4904    4.6234 H   0  0  0  0  0  0  0  0  0  0  0  0
    8.5096   16.0899    2.6311 O   0  0  0  0  0  0  0  0  0  0  0  0
    6.7297   15.2293    4.0531 C   0  0  2  0  0  0  0  0  0  0  0  0
    7.2757   14.2780    3.8910 H   0  0  0  0  0  0  0  0  0  0  0  0
    5.6535   15.1836    3.0882 O   0  0  0  0  0  0  0  0  0  0  0  0
    6.1988   15.2150    5.5052 C   0  0  0  0  0  0  0  0  0  0  0  0
    5.2439   14.1724    5.6970 O   0  0  0  0  0  0  0  0  0  0  0  0
    0.1832   14.8524    4.0510 H   0  0  0  0  0  0  0  0  0  0  0  0
    0.9773   14.7288    5.6187 H   0  0  0  0  0  0  0  0  0  0  0  0
   -0.1077   11.9327    4.0425 H   0  0  0  0  0  0  0  0  0  0  0  0
    0.0477   12.5901    5.5450 H   0  0  0  0  0  0  0  0  0  0  0  0
    5.1535   14.9903   -0.2850 H   0  0  0  0  0  0  0  0  0  0  0  0
    2.8533   17.1784   -5.0660 H   0  0  0  0  0  0  0  0  0  0  0  0
    2.6167   18.7276   -4.6439 H   0  0  0  0  0  0  0  0  0  0  0  0
    6.3507   17.7079   -2.3924 H   0  0  0  0  0  0  0  0  0  0  0  0
    4.7553   19.3608   -5.9217 H   0  0  0  0  0  0  0  0  0  0  0  0
    7.1722   16.5656   -6.5206 H   0  0  0  0  0  0  0  0  0  0  0  0
    5.5092   16.1329   -6.9568 H   0  0  0  0  0  0  0  0  0  0  0  0
    7.3940   14.3456   -5.6028 H   0  0  0  0  0  0  0  0  0  0  0  0
    7.0354   14.3375   -7.1988 H   0  0  0  0  0  0  0  0  0  0  0  0
    0.6832   11.5001   -1.9720 H   0  0  0  0  0  0  0  0  0  0  0  0
    1.5887   11.7551   -3.4746 H   0  0  0  0  0  0  0  0  0  0  0  0
    2.5301   10.9538   -0.9277 H   0  0  0  0  0  0  0  0  0  0  0  0
    2.2606   11.1854    3.0703 H   0  0  0  0  0  0  0  0  0  0  0  0
    2.5008   17.6316    4.2420 H   0  0  0  0  0  0  0  0  0  0  0  0
    1.3485   17.0500    5.2396 H   0  0  0  0  0  0  0  0  0  0  0  0
    6.3146   16.3112    1.0094 H   0  0  0  0  0  0  0  0  0  0  0  0
    5.6645   17.6988    0.5079 H   0  0  0  0  0  0  0  0  0  0  0  0
    5.7927   18.8945    4.6631 H   0  0  0  0  0  0  0  0  0  0  0  0
    8.1476   16.5886    1.8697 H   0  0  0  0  0  0  0  0  0  0  0  0
    7.0183   15.0732    6.2121 H   0  0  0  0  0  0  0  0  0  0  0  0
    5.6893   16.1393    5.7747 H   0  0  0  0  0  0  0  0  0  0  0  0
    5.6584   13.3409    5.3846 H   0  0  0  0  0  0  0  0  0  0  0  0
  1 48  1  6  0  0  0
  1 59  1  0  0  0  0
  1  3  1  0  0  0  0
  1  2  1  0  0  0  0
  4  6  1  1  0  0  0
  4  5  1  0  0  0  0
  4  3  1  0  0  0  0
  6  7  1  1  0  0  0
  6  8  1  0  0  0  0
  6 47  1  0  0  0  0
  8  9  1  0  0  0  0
  8 62  1  0  0  0  0
  8 63  1  0  0  0  0
  9 12  1  6  0  0  0
  9 11  1  0  0  0  0
  9 10  1  0  0  0  0
 11 64  1  0  0  0  0
 11 65  1  0  0  0  0
 12 13  1  0  0  0  0
 12 14  1  6  0  0  0
 12 46  1  0  0  0  0
 14  4  1  1  0  0  0
 14 16  1  0  0  0  0
 14 15  1  0  0  0  0
 16 17  1  0  0  0  0
 17 18  1  0  0  0  0
 17 19  1  6  0  0  0
 17 43  1  0  0  0  0
 19 22  1  6  0  0  0
 19 21  1  0  0  0  0
 19 20  1  0  0  0  0
 21 66  1  0  0  0  0
 22 23  1  0  0  0  0
 22 24  1  0  0  0  0
 22 41  1  1  0  0  0
 25 27  1  6  0  0  0
 25 38  1  0  0  0  0
 25 26  1  0  0  0  0
 25 24  1  0  0  0  0
 27 30  1  6  0  0  0
 27 29  1  0  0  0  0
 27 28  1  0  0  0  0
 29 67  1  0  0  0  0
 29 68  1  0  0  0  0
 30 32  1  0  0  0  0
 30 31  1  6  0  0  0
 32 69  1  0  0  0  0
 33 30  1  1  0  0  0
 33 34  1  0  0  0  0
 33 35  1  0  0  0  0
 35 70  1  0  0  0  0
 36 33  1  1  0  0  0
 36 37  1  0  0  0  0
 36 38  1  0  0  0  0
 36 39  1  0  0  0  0
 39 40  1  0  0  0  0
 39 71  1  0  0  0  0
 39 72  1  0  0  0  0
 40 73  1  0  0  0  0
 40 74  1  0  0  0  0
 41 43  1  0  0  0  0
 41 44  1  0  0  0  0
 41 42  1  6  0  0  0
 44 45  1  0  0  0  0
 44 75  1  0  0  0  0
 44 76  1  0  0  0  0
 45 77  1  0  0  0  0
 46 78  1  0  0  0  0
 47 79  1  0  0  0  0
 47 80  1  0  0  0  0
 48 51  1  1  0  0  0
 48 50  1  0  0  0  0
 48 49  1  0  0  0  0
 50 81  1  0  0  0  0
 50 82  1  0  0  0  0
 51 54  1  1  0  0  0
 51 53  1  0  0  0  0
 51 52  1  0  0  0  0
 53 83  1  0  0  0  0
 54 55  1  0  0  0  0
 54 56  1  0  0  0  0
 54 57  1  1  0  0  0
 56 84  1  0  0  0  0
 57 59  1  0  0  0  0
 57 60  1  0  0  0  0
 57 58  1  6  0  0  0
 60 61  1  0  0  0  0
 60 85  1  0  0  0  0
 60 86  1  0  0  0  0
 61 87  1  0  0  0  0
M  END
$$$$
