3GAO_XAN_A_90
 OpenBabel03221817303D

 15 16  0  0  0  0  0  0  0  0999 V2000
   -1.5345    1.1049   -0.0003 N   0  0  0  0  0  0  0  0  0  0  0  0
   -1.8647    2.0597    0.0000 H   0  0  0  0  0  0  0  0  0  0  0  0
   -0.2462    0.6712   -0.0009 C   0  0  0  0  0  0  0  0  0  0  0  0
    0.9032    1.4091   -0.0012 N   0  0  0  0  0  0  0  0  0  0  0  0
    0.9230    2.4206   -0.0008 H   0  0  0  0  0  0  0  0  0  0  0  0
    2.1089    0.7387   -0.0016 C   0  0  0  0  0  0  0  0  0  0  0  0
    3.1751    1.3481   -0.0016 O   0  0  0  0  0  0  0  0  0  0  0  0
    2.0664   -0.6413   -0.0020 N   0  0  0  0  0  0  0  0  0  0  0  0
    2.9534   -1.1187   -0.0024 H   0  0  0  0  0  0  0  0  0  0  0  0
    0.9403   -1.4540   -0.0019 C   0  0  0  0  0  0  0  0  0  0  0  0
    1.0251   -2.6778   -0.0022 O   0  0  0  0  0  0  0  0  0  0  0  0
   -0.2975   -0.6986   -0.0012 C   0  0  0  0  0  0  0  0  0  0  0  0
   -1.6017   -1.1268   -0.0007 N   0  0  0  0  0  0  0  0  0  0  0  0
   -2.3205   -0.0216   -0.0001 C   0  0  0  0  0  0  0  0  0  0  0  0
   -3.4019    0.0285    0.0006 H   0  0  0  0  0  0  0  0  0  0  0  0
  1  2  1  0  0  0  0
  1  3  1  0  0  0  0
  1 14  1  0  0  0  0
  3  4  1  0  0  0  0
  3 12  2  0  0  0  0
  4  5  1  0  0  0  0
  4  6  1  0  0  0  0
  6  7  2  0  0  0  0
  6  8  1  0  0  0  0
  8  9  1  0  0  0  0
  8 10  1  0  0  0  0
 10 11  2  0  0  0  0
 10 12  1  0  0  0  0
 12 13  1  0  0  0  0
 13 14  2  0  0  0  0
 14 15  1  0  0  0  0
M  END
$$$$
