1UUI_P12_B_1046
 OpenBabel03221817013D

 52 53  0  0  0  0  0  0  0  0999 V2000
   -0.6136   -1.2149   -0.1171 C   0  0  0  0  0  0  0  0  0  0  0  0
   -1.3998   -0.0736   -0.2302 C   0  0  0  0  0  0  0  0  0  0  0  0
   -0.7797    1.1724   -0.2436 C   0  0  0  0  0  0  0  0  0  0  0  0
    0.6268    1.2897   -0.1711 C   0  0  0  0  0  0  0  0  0  0  0  0
    1.4154    0.1224   -0.1284 C   0  0  0  0  0  0  0  0  0  0  0  0
    0.7801   -1.1232   -0.0674 C   0  0  0  0  0  0  0  0  0  0  0  0
    2.7828    0.2868   -0.1189 O   0  0  0  0  0  0  0  0  0  0  0  0
    3.5447   -0.8460   -0.5701 C   0  0  0  0  0  0  0  0  0  0  0  0
    5.0362   -0.5137   -0.4834 C   0  0  0  0  0  0  0  0  0  0  0  0
    5.4723   -0.3238    0.9650 C   0  0  0  0  0  0  0  0  0  0  0  0
    6.9309   -0.0518    1.0210 N   0  3  0  0  0  0  0  0  0  0  0  0
    7.4871   -0.8424    0.6633 H   0  0  0  0  0  0  0  0  0  0  0  0
    7.2071    0.7842    0.4893 H   0  0  0  0  0  0  0  0  0  0  0  0
    7.2395    0.0988    1.9934 H   0  0  0  0  0  0  0  0  0  0  0  0
    1.2217    2.6759   -0.1543 C   0  0  0  0  0  0  0  0  0  0  0  0
    1.6704    3.1737   -1.5027 N   0  3  0  0  0  0  0  0  0  0  0  0
    2.3129    2.4611   -1.8602 H   0  0  0  0  0  0  0  0  0  0  0  0
    0.5416    3.3047   -2.5384 C   0  0  0  0  0  0  0  0  0  0  0  0
    1.1654    3.6592   -3.9026 C   0  0  0  0  0  0  0  0  0  0  0  0
    1.8824    4.9505   -3.7970 N   0  0  0  0  0  0  0  0  0  0  0  0
    2.9676    4.9110   -2.8024 C   0  0  0  0  0  0  0  0  0  0  0  0
    2.4263    4.5068   -1.4115 C   0  0  0  0  0  0  0  0  0  0  0  0
    1.2175    6.1150   -4.0816 C   0  0  0  0  0  0  0  0  0  0  0  0
    1.4146    7.2832   -3.6013 N   0  0  0  0  0  0  0  0  0  0  0  0
    0.2287    6.0028   -4.9912 N   0  0  0  0  0  0  0  0  0  0  0  0
   -2.7406   -0.3062   -0.3047 O   0  0  0  0  0  0  0  0  0  0  0  0
   -3.5993    0.8141   -0.4855 C   0  0  0  0  0  0  0  0  0  0  0  0
   -1.0939   -2.1922   -0.0657 H   0  0  0  0  0  0  0  0  0  0  0  0
   -1.3831    2.0744   -0.3051 H   0  0  0  0  0  0  0  0  0  0  0  0
    1.3184   -2.0602    0.0371 H   0  0  0  0  0  0  0  0  0  0  0  0
    3.2828   -1.0625   -1.6132 H   0  0  0  0  0  0  0  0  0  0  0  0
    3.3593   -1.7298    0.0497 H   0  0  0  0  0  0  0  0  0  0  0  0
    5.2413    0.4015   -1.0517 H   0  0  0  0  0  0  0  0  0  0  0  0
    5.6107   -1.3273   -0.9420 H   0  0  0  0  0  0  0  0  0  0  0  0
    5.2980   -1.2221    1.5645 H   0  0  0  0  0  0  0  0  0  0  0  0
    4.9743    0.5308    1.4323 H   0  0  0  0  0  0  0  0  0  0  0  0
    2.1017    2.6881    0.5005 H   0  0  0  0  0  0  0  0  0  0  0  0
    0.5130    3.4090    0.2483 H   0  0  0  0  0  0  0  0  0  0  0  0
   -0.1429    4.0803   -2.1744 H   0  0  0  0  0  0  0  0  0  0  0  0
    0.0288    2.3437   -2.6052 H   0  0  0  0  0  0  0  0  0  0  0  0
    0.3894    3.6554   -4.6747 H   0  0  0  0  0  0  0  0  0  0  0  0
    1.8826    2.8805   -4.1906 H   0  0  0  0  0  0  0  0  0  0  0  0
    3.5060    5.8618   -2.7380 H   0  0  0  0  0  0  0  0  0  0  0  0
    3.7087    4.1697   -3.1259 H   0  0  0  0  0  0  0  0  0  0  0  0
    1.7258    5.2492   -1.0135 H   0  0  0  0  0  0  0  0  0  0  0  0
    3.2522    4.3601   -0.7075 H   0  0  0  0  0  0  0  0  0  0  0  0
    2.1976    7.3466   -2.9606 H   0  0  0  0  0  0  0  0  0  0  0  0
    0.5568    5.6176   -5.8715 H   0  0  0  0  0  0  0  0  0  0  0  0
   -0.1341    6.9363   -5.1851 H   0  0  0  0  0  0  0  0  0  0  0  0
   -4.6310    0.4512   -0.4939 H   0  0  0  0  0  0  0  0  0  0  0  0
   -3.4042    1.3016   -1.4468 H   0  0  0  0  0  0  0  0  0  0  0  0
   -3.5020    1.5244    0.3419 H   0  0  0  0  0  0  0  0  0  0  0  0
  1  2  2  0  0  0  0
  1  6  1  0  0  0  0
  1 28  1  0  0  0  0
  2  3  1  0  0  0  0
  2 26  1  0  0  0  0
  3  4  2  0  0  0  0
  3 29  1  0  0  0  0
  4  5  1  0  0  0  0
  4 15  1  0  0  0  0
  5  6  2  0  0  0  0
  5  7  1  0  0  0  0
  6 30  1  0  0  0  0
  7  8  1  0  0  0  0
  8  9  1  0  0  0  0
  8 31  1  0  0  0  0
  8 32  1  0  0  0  0
  9 10  1  0  0  0  0
  9 33  1  0  0  0  0
  9 34  1  0  0  0  0
 10 11  1  0  0  0  0
 10 35  1  0  0  0  0
 10 36  1  0  0  0  0
 11 12  1  0  0  0  0
 11 13  1  0  0  0  0
 11 14  1  0  0  0  0
 15 16  1  0  0  0  0
 15 37  1  0  0  0  0
 15 38  1  0  0  0  0
 16 17  1  0  0  0  0
 16 18  1  0  0  0  0
 16 22  1  0  0  0  0
 18 19  1  0  0  0  0
 18 39  1  0  0  0  0
 18 40  1  0  0  0  0
 19 20  1  0  0  0  0
 19 41  1  0  0  0  0
 19 42  1  0  0  0  0
 20 21  1  0  0  0  0
 20 23  1  0  0  0  0
 21 22  1  0  0  0  0
 21 43  1  0  0  0  0
 21 44  1  0  0  0  0
 22 45  1  0  0  0  0
 22 46  1  0  0  0  0
 23 24  2  0  0  0  0
 23 25  1  0  0  0  0
 24 47  1  0  0  0  0
 25 48  1  0  0  0  0
 25 49  1  0  0  0  0
 26 27  1  0  0  0  0
 27 50  1  0  0  0  0
 27 51  1  0  0  0  0
 27 52  1  0  0  0  0
M  CHG  2  11   1  16   1
M  END
$$$$
