3GX2_SFG_A_301
 OpenBabel03221817303D

 50 52  0  0  1  0  0  0  0  0999 V2000
    3.0796    0.2300   -3.1494 N   0  0  0  0  0  0  0  0  0  0  0  0
    4.5396    0.1086   -2.9480 C   0  0  2  0  0  0  0  0  0  0  0  0
    4.9946    0.9781   -3.4320 H   0  0  0  0  0  0  0  0  0  0  0  0
    5.1132   -1.1482   -3.6360 C   0  0  0  0  0  0  0  0  0  0  0  0
    6.2993   -1.4411   -3.6608 O   0  0  0  0  0  0  0  0  0  0  0  0
    4.1779   -1.9149   -4.2464 O   0  0  0  0  0  0  0  0  0  0  0  0
    4.8087    0.1116   -1.4365 C   0  0  0  0  0  0  0  0  0  0  0  0
    6.2848    0.1784   -1.0143 C   0  0  0  0  0  0  0  0  0  0  0  0
    7.1193    1.3351   -1.6051 C   0  0  2  0  0  0  0  0  0  0  0  0
    7.1507    1.2366   -2.6956 H   0  0  0  0  0  0  0  0  0  0  0  0
    8.4860    1.1723   -1.1024 N   0  0  0  0  0  0  0  0  0  0  0  0
    6.5531    2.7212   -1.2388 C   0  0  0  0  0  0  0  0  0  0  0  0
    7.2384    3.9107   -1.9249 C   0  0  1  0  0  0  0  0  0  0  0  0
    7.1962    3.7617   -3.0119 H   0  0  0  0  0  0  0  0  0  0  0  0
    6.4948    5.1090   -1.6292 O   0  0  0  0  0  0  0  0  0  0  0  0
    7.3917    6.2052   -1.8803 C   0  0  2  0  0  0  0  0  0  0  0  0
    7.3214    6.4733   -2.9417 H   0  0  0  0  0  0  0  0  0  0  0  0
    8.7959    5.7209   -1.5054 C   0  0  1  0  0  0  0  0  0  0  0  0
    9.1037    6.0757   -0.5144 H   0  0  0  0  0  0  0  0  0  0  0  0
    8.6701    4.1984   -1.4759 C   0  0  2  0  0  0  0  0  0  0  0  0
    8.8376    3.8498   -0.4509 H   0  0  0  0  0  0  0  0  0  0  0  0
    9.6159    3.5558   -2.3321 O   0  0  0  0  0  0  0  0  0  0  0  0
    9.8012    6.1311   -2.4415 O   0  0  0  0  0  0  0  0  0  0  0  0
    6.9721    7.3680   -1.1234 N   0  0  0  0  0  0  0  0  0  0  0  0
    5.9354    7.4528   -0.2345 C   0  0  0  0  0  0  0  0  0  0  0  0
    5.8200    8.6612    0.2741 N   0  0  0  0  0  0  0  0  0  0  0  0
    6.8289    9.3926   -0.3167 C   0  0  0  0  0  0  0  0  0  0  0  0
    7.2203   10.7358   -0.1952 C   0  0  0  0  0  0  0  0  0  0  0  0
    6.5863   11.6361    0.6516 N   0  0  0  0  0  0  0  0  0  0  0  0
    8.2498   11.1761   -0.9537 N   0  0  0  0  0  0  0  0  0  0  0  0
    8.8747   10.2934   -1.7645 C   0  0  0  0  0  0  0  0  0  0  0  0
    8.6099    8.9774   -1.9466 N   0  0  0  0  0  0  0  0  0  0  0  0
    7.5574    8.6048   -1.1951 C   0  0  0  0  0  0  0  0  0  0  0  0
    2.5275   -0.4609   -2.6482 H   0  0  0  0  0  0  0  0  0  0  0  0
    2.8032    0.3789   -4.1156 H   0  0  0  0  0  0  0  0  0  0  0  0
    3.2940   -1.5215   -4.1318 H   0  0  0  0  0  0  0  0  0  0  0  0
    4.3776   -0.7941   -0.9877 H   0  0  0  0  0  0  0  0  0  0  0  0
    4.2801    0.9541   -0.9721 H   0  0  0  0  0  0  0  0  0  0  0  0
    6.7606   -0.7778   -1.2677 H   0  0  0  0  0  0  0  0  0  0  0  0
    6.3136    0.2347    0.0830 H   0  0  0  0  0  0  0  0  0  0  0  0
    9.1168    1.8013   -1.6175 H   0  0  0  0  0  0  0  0  0  0  0  0
    8.8244    0.2378   -1.3398 H   0  0  0  0  0  0  0  0  0  0  0  0
    6.5649    2.8659   -0.1498 H   0  0  0  0  0  0  0  0  0  0  0  0
    5.4922    2.7658   -1.5150 H   0  0  0  0  0  0  0  0  0  0  0  0
   10.2326    4.2639   -2.6189 H   0  0  0  0  0  0  0  0  0  0  0  0
    9.8028    7.1123   -2.4349 H   0  0  0  0  0  0  0  0  0  0  0  0
    5.2968    6.6100    0.0028 H   0  0  0  0  0  0  0  0  0  0  0  0
    5.6522   11.3458    0.9208 H   0  0  0  0  0  0  0  0  0  0  0  0
    6.7151   12.5965    0.3634 H   0  0  0  0  0  0  0  0  0  0  0  0
    9.6970   10.7001   -2.3479 H   0  0  0  0  0  0  0  0  0  0  0  0
  1 34  1  0  0  0  0
  1 35  1  0  0  0  0
  2  4  1  0  0  0  0
  2  7  1  0  0  0  0
  2  3  1  6  0  0  0
  2  1  1  0  0  0  0
  4  5  2  0  0  0  0
  4  6  1  0  0  0  0
  6 36  1  0  0  0  0
  7  8  1  0  0  0  0
  7 37  1  0  0  0  0
  7 38  1  0  0  0  0
  8 39  1  0  0  0  0
  8 40  1  0  0  0  0
  9 11  1  0  0  0  0
  9 12  1  0  0  0  0
  9 10  1  6  0  0  0
  9  8  1  0  0  0  0
 11 41  1  0  0  0  0
 11 42  1  0  0  0  0
 12 13  1  0  0  0  0
 12 43  1  0  0  0  0
 12 44  1  0  0  0  0
 13 14  1  0  0  0  0
 13 15  1  0  0  0  0
 13 20  1  1  0  0  0
 15 16  1  0  0  0  0
 16 18  1  1  0  0  0
 16 24  1  0  0  0  0
 16 17  1  0  0  0  0
 18 19  1  0  0  0  0
 18 20  1  1  0  0  0
 18 23  1  0  0  0  0
 20 21  1  1  0  0  0
 20 22  1  0  0  0  0
 22 45  1  0  0  0  0
 23 46  1  0  0  0  0
 24 25  1  0  0  0  0
 24 33  1  0  0  0  0
 25 26  2  0  0  0  0
 25 47  1  0  0  0  0
 26 27  1  0  0  0  0
 27 28  2  0  0  0  0
 27 33  1  0  0  0  0
 28 29  1  0  0  0  0
 28 30  1  0  0  0  0
 29 48  1  0  0  0  0
 29 49  1  0  0  0  0
 30 31  2  0  0  0  0
 31 32  1  0  0  0  0
 31 50  1  0  0  0  0
 32 33  2  0  0  0  0
M  END
$$$$
