ligands/ligand.pdb
 OpenBabel03221817013D

 88 91  0  0  1  0  0  0  0  0999 V2000
    1.6547    1.4618    1.0067 O   0  0  0  0  0  0  0  0  0  0  0  0
    1.3838    0.9083   -0.2766 C   0  0  0  0  0  0  0  0  0  0  0  0
    2.6540    0.7763   -1.1093 C   0  0  1  0  0  0  0  0  0  0  0  0
    2.3987    0.2134   -2.0196 H   0  0  0  0  0  0  0  0  0  0  0  0
    3.1013    2.1088   -1.5389 O   0  0  0  0  0  0  0  0  0  0  0  0
    4.3873    1.8496   -2.1134 C   0  0  2  0  0  0  0  0  0  0  0  0
    4.1686    1.3946   -3.0844 H   0  0  0  0  0  0  0  0  0  0  0  0
    5.0085    0.8269   -1.1512 C   0  0  1  0  0  0  0  0  0  0  0  0
    5.7236    1.2791   -0.4581 H   0  0  0  0  0  0  0  0  0  0  0  0
    3.8696    0.1415   -0.4020 C   0  0  2  0  0  0  0  0  0  0  0  0
    3.8934    0.4509    0.6515 H   0  0  0  0  0  0  0  0  0  0  0  0
    3.9113   -1.3210   -0.4597 O   0  0  0  0  0  0  0  0  0  0  0  0
    5.1038   -1.8891    0.1439 C   0  0  1  0  0  0  0  0  0  0  0  0
    5.9820   -1.3428   -0.1879 H   0  0  0  0  0  0  0  0  0  0  0  0
    5.1237   -1.7134    1.5570 O   0  0  0  0  0  0  0  0  0  0  0  0
    4.3788   -2.6510    2.3407 C   0  0  2  0  0  0  0  0  0  0  0  0
    4.7480   -2.5058    3.3618 H   0  0  0  0  0  0  0  0  0  0  0  0
    4.6937   -4.1116    1.9858 C   0  0  2  0  0  0  0  0  0  0  0  0
    5.7347   -4.3192    2.2668 H   0  0  0  0  0  0  0  0  0  0  0  0
    4.5549   -4.3768    0.4919 C   0  0  1  0  0  0  0  0  0  0  0  0
    3.5108   -4.3536    0.1670 H   0  0  0  0  0  0  0  0  0  0  0  0
    5.4110   -3.3687   -0.2765 C   0  0  1  0  0  0  0  0  0  0  0  0
    6.4481   -3.5641    0.0150 H   0  0  0  0  0  0  0  0  0  0  0  0
    5.3424   -3.6870   -1.7166 N   0  0  0  0  0  0  0  0  0  0  0  0
    5.0096   -5.7156    0.1972 O   0  0  0  0  0  0  0  0  0  0  0  0
    3.8996   -5.0524    2.7145 O   0  0  0  0  0  0  0  0  0  0  0  0
    2.8851   -2.2719    2.4139 C   0  0  0  0  0  0  0  0  0  0  0  0
    2.1059   -2.4918    1.1924 N   0  0  0  0  0  0  0  0  0  0  0  0
    5.6288   -0.1234   -1.9784 O   0  0  0  0  0  0  0  0  0  0  0  0
    5.2098    3.0036   -2.4020 O   0  0  0  0  0  0  0  0  0  0  0  0
    6.5605    2.6652   -2.8609 C   0  0  1  0  0  0  0  0  0  0  0  0
    6.9920    2.0264   -2.0905 H   0  0  0  0  0  0  0  0  0  0  0  0
    6.6128    1.9213   -4.2443 C   0  0  2  0  0  0  0  0  0  0  0  0
    5.8130    1.1783   -4.3004 H   0  0  0  0  0  0  0  0  0  0  0  0
    7.8569    1.2131   -4.5285 O   0  0  0  0  0  0  0  0  0  0  0  0
    8.0949    0.1017   -3.6613 C   0  0  1  0  0  0  0  0  0  0  0  0
    8.1813    0.4883   -2.6418 H   0  0  0  0  0  0  0  0  0  0  0  0
    7.0176   -0.8200   -3.6915 O   0  0  0  0  0  0  0  0  0  0  0  0
    6.8234   -1.5138   -4.9161 C   0  0  1  0  0  0  0  0  0  0  0  0
    6.6970   -0.7999   -5.7398 H   0  0  0  0  0  0  0  0  0  0  0  0
    8.0374   -2.4124   -5.1501 C   0  0  2  0  0  0  0  0  0  0  0  0
    8.1296   -3.1505   -4.3400 H   0  0  0  0  0  0  0  0  0  0  0  0
    9.3003   -1.5348   -5.1759 C   0  0  1  0  0  0  0  0  0  0  0  0
    9.2933   -0.8994   -6.0683 H   0  0  0  0  0  0  0  0  0  0  0  0
    9.4057   -0.6772   -3.9021 C   0  0  1  0  0  0  0  0  0  0  0  0
    9.5227   -1.3794   -3.0650 H   0  0  0  0  0  0  0  0  0  0  0  0
   10.6074    0.1778   -3.8869 N   0  0  0  0  0  0  0  0  0  0  0  0
   10.4553   -2.3833   -5.2815 O   0  0  0  0  0  0  0  0  0  0  0  0
    7.9519   -3.1381   -6.3761 O   0  0  0  0  0  0  0  0  0  0  0  0
    5.5154   -2.3163   -4.7777 C   0  0  0  0  0  0  0  0  0  0  0  0
    5.1452   -3.1061   -5.9584 N   0  0  0  0  0  0  0  0  0  0  0  0
    6.3642    2.8914   -5.4310 C   0  0  2  0  0  0  0  0  0  0  0  0
    6.5667    2.3474   -6.3628 H   0  0  0  0  0  0  0  0  0  0  0  0
    7.3459    4.0675   -5.3855 C   0  0  0  0  0  0  0  0  0  0  0  0
    7.3217    4.8573   -4.0676 C   0  0  2  0  0  0  0  0  0  0  0  0
    8.1901    5.5290   -4.1011 H   0  0  0  0  0  0  0  0  0  0  0  0
    7.4830    3.9160   -2.8501 C   0  0  2  0  0  0  0  0  0  0  0  0
    7.3058    4.4854   -1.9289 H   0  0  0  0  0  0  0  0  0  0  0  0
    8.8450    3.4620   -2.7838 O   0  0  0  0  0  0  0  0  0  0  0  0
    6.1508    5.7341   -3.9471 N   0  0  0  0  0  0  0  0  0  0  0  0
    4.9766    3.3750   -5.5213 N   0  0  0  0  0  0  0  0  0  0  0  0
    0.8660    1.9670    1.2725 H   0  0  0  0  0  0  0  0  0  0  0  0
    0.6702    1.5647   -0.7872 H   0  0  0  0  0  0  0  0  0  0  0  0
    0.9144   -0.0678   -0.1302 H   0  0  0  0  0  0  0  0  0  0  0  0
    4.3985   -3.5028   -2.0415 H   0  0  0  0  0  0  0  0  0  0  0  0
    5.4643   -4.6993   -1.7911 H   0  0  0  0  0  0  0  0  0  0  0  0
    4.7077   -6.2725    0.9422 H   0  0  0  0  0  0  0  0  0  0  0  0
    2.9780   -4.9398    2.4177 H   0  0  0  0  0  0  0  0  0  0  0  0
    2.4061   -2.8434    3.2144 H   0  0  0  0  0  0  0  0  0  0  0  0
    2.8164   -1.2108    2.6756 H   0  0  0  0  0  0  0  0  0  0  0  0
    2.6542   -2.1427    0.3949 H   0  0  0  0  0  0  0  0  0  0  0  0
    1.3144   -1.8456    1.2192 H   0  0  0  0  0  0  0  0  0  0  0  0
    6.5418   -0.2704   -1.6870 H   0  0  0  0  0  0  0  0  0  0  0  0
   10.4539    0.9565   -4.5280 H   0  0  0  0  0  0  0  0  0  0  0  0
   11.3686   -0.3781   -4.2817 H   0  0  0  0  0  0  0  0  0  0  0  0
   10.1943   -3.0788   -5.9182 H   0  0  0  0  0  0  0  0  0  0  0  0
    7.0277   -3.4763   -6.4166 H   0  0  0  0  0  0  0  0  0  0  0  0
    4.6898   -1.6482   -4.5026 H   0  0  0  0  0  0  0  0  0  0  0  0
    5.6308   -3.0106   -3.9507 H   0  0  0  0  0  0  0  0  0  0  0  0
    4.7434   -2.4813   -6.6577 H   0  0  0  0  0  0  0  0  0  0  0  0
    4.3755   -3.7258   -5.6862 H   0  0  0  0  0  0  0  0  0  0  0  0
    7.1714    4.7397   -6.2364 H   0  0  0  0  0  0  0  0  0  0  0  0
    8.3621    3.6765   -5.5352 H   0  0  0  0  0  0  0  0  0  0  0  0
    9.4185    4.2477   -2.7463 H   0  0  0  0  0  0  0  0  0  0  0  0
    5.4328    5.2900   -3.3717 H   0  0  0  0  0  0  0  0  0  0  0  0
    5.7256    5.8630   -4.8682 H   0  0  0  0  0  0  0  0  0  0  0  0
    4.6821    3.7400   -4.6126 H   0  0  0  0  0  0  0  0  0  0  0  0
    4.3540    2.5898   -5.7087 H   0  0  0  0  0  0  0  0  0  0  0  0
  1  2  1  0  0  0  0
  1 62  1  0  0  0  0
  2  3  1  0  0  0  0
  2 63  1  0  0  0  0
  2 64  1  0  0  0  0
  3  4  1  0  0  0  0
  3  5  1  0  0  0  0
  3 10  1  1  0  0  0
  5  6  1  0  0  0  0
  6  8  1  1  0  0  0
  6 30  1  0  0  0  0
  6  7  1  0  0  0  0
  8  9  1  0  0  0  0
  8 10  1  1  0  0  0
  8 29  1  0  0  0  0
 10 11  1  1  0  0  0
 10 12  1  0  0  0  0
 12 13  1  0  0  0  0
 13 14  1  0  0  0  0
 13 15  1  0  0  0  0
 13 22  1  6  0  0  0
 15 16  1  0  0  0  0
 16 18  1  6  0  0  0
 16 27  1  0  0  0  0
 16 17  1  0  0  0  0
 18 20  1  6  0  0  0
 18 26  1  0  0  0  0
 18 19  1  0  0  0  0
 20 21  1  0  0  0  0
 20 22  1  6  0  0  0
 20 25  1  0  0  0  0
 22 24  1  0  0  0  0
 22 23  1  1  0  0  0
 24 65  1  0  0  0  0
 24 66  1  0  0  0  0
 25 67  1  0  0  0  0
 26 68  1  0  0  0  0
 27 28  1  0  0  0  0
 27 69  1  0  0  0  0
 27 70  1  0  0  0  0
 28 71  1  0  0  0  0
 28 72  1  0  0  0  0
 29 73  1  0  0  0  0
 30 31  1  0  0  0  0
 31 32  1  0  0  0  0
 31 57  1  6  0  0  0
 33 31  1  1  0  0  0
 33 35  1  0  0  0  0
 33 34  1  0  0  0  0
 35 36  1  0  0  0  0
 36 37  1  0  0  0  0
 36 38  1  0  0  0  0
 36 45  1  6  0  0  0
 38 39  1  0  0  0  0
 39 40  1  0  0  0  0
 39 41  1  6  0  0  0
 39 50  1  0  0  0  0
 41 43  1  6  0  0  0
 41 49  1  0  0  0  0
 41 42  1  0  0  0  0
 43 44  1  0  0  0  0
 43 45  1  1  0  0  0
 43 48  1  0  0  0  0
 45 47  1  0  0  0  0
 45 46  1  1  0  0  0
 47 74  1  0  0  0  0
 47 75  1  0  0  0  0
 48 76  1  0  0  0  0
 49 77  1  0  0  0  0
 50 51  1  0  0  0  0
 50 78  1  0  0  0  0
 50 79  1  0  0  0  0
 51 80  1  0  0  0  0
 51 81  1  0  0  0  0
 52 33  1  1  0  0  0
 52 54  1  0  0  0  0
 52 61  1  0  0  0  0
 52 53  1  0  0  0  0
 54 55  1  0  0  0  0
 54 82  1  0  0  0  0
 54 83  1  0  0  0  0
 55 57  1  1  0  0  0
 55 60  1  0  0  0  0
 55 56  1  0  0  0  0
 57 58  1  1  0  0  0
 57 59  1  0  0  0  0
 59 84  1  0  0  0  0
 60 85  1  0  0  0  0
 60 86  1  0  0  0  0
 61 87  1  0  0  0  0
 61 88  1  0  0  0  0
M  END
$$$$
