
 OpenBabel03221816213D
Coordinates from PDB:1AKX:A:47 Model:1 without hydrogens
 26 25  0  0  1  0  0  0  0  0999 V2000
   -1.7460   -5.4470    3.7440 N   0  0  0  0  0  0  0  0  0  0  0  0
   -1.5050   -5.5260    2.2730 C   0  0  2  0  0  0  0  0  0  0  0  0
   -0.0880   -6.0530    2.0140 C   0  0  0  0  0  0  0  0  0  0  0  0
    0.0810   -7.1380    1.4940 O   0  0  0  0  0  0  0  0  0  0  0  0
   -1.6600   -4.1320    1.6500 C   0  0  0  0  0  0  0  0  0  0  0  0
   -2.7350   -4.1700    0.5590 C   0  0  0  0  0  0  0  0  0  0  0  0
   -2.3650   -3.1930   -0.5570 C   0  0  0  0  0  0  0  0  0  0  0  0
   -3.6040   -2.7490   -1.2570 N   0  0  0  0  0  0  0  0  0  0  0  0
   -3.6220   -2.6410   -2.5610 C   0  0  0  0  0  0  0  0  0  0  0  0
   -2.6040   -2.1160   -3.1930 N   0  0  0  0  0  0  0  0  0  0  0  0
   -4.6580   -3.0650   -3.2340 N   0  3  0  0  0  0  0  0  0  0  0  0
   -1.6425   -6.3744    4.1558 H   0  0  0  0  0  0  0  0  0  0  0  0
   -2.6905   -5.1022    3.9158 H   0  0  0  0  0  0  0  0  0  0  0  0
   -2.2171   -6.1910    1.8308 H   0  0  0  0  0  0  0  0  0  0  0  0
    0.7281   -5.4816    2.2835 H   0  0  0  0  0  0  0  0  0  0  0  0
   -0.7280   -3.8289    1.2205 H   0  0  0  0  0  0  0  0  0  0  0  0
   -1.9498   -3.4353    2.4086 H   0  0  0  0  0  0  0  0  0  0  0  0
   -3.6788   -3.8909    0.9787 H   0  0  0  0  0  0  0  0  0  0  0  0
   -2.8009   -5.1600    0.1583 H   0  0  0  0  0  0  0  0  0  0  0  0
   -1.7149   -3.6778   -1.2550 H   0  0  0  0  0  0  0  0  0  0  0  0
   -1.8672   -2.3436   -0.1380 H   0  0  0  0  0  0  0  0  0  0  0  0
   -4.4119   -2.5362   -0.7362 H   0  0  0  0  0  0  0  0  0  0  0  0
   -1.8224   -1.7960   -2.6871 H   0  0  0  0  0  0  0  0  0  0  0  0
   -2.6195   -2.0409   -4.1745 H   0  0  0  0  0  0  0  0  0  0  0  0
   -5.4249   -3.4603   -2.7598 H   0  0  0  0  0  0  0  0  0  0  0  0
   -4.6720   -2.9893   -4.2155 H   0  0  0  0  0  0  0  0  0  0  0  0
  1  2  1  0  0  0  0
  1 12  1  0  0  0  0
  1 13  1  0  0  0  0
  2  3  1  0  0  0  0
  2  5  1  0  0  0  0
  2 14  1  6  0  0  0
  3  4  2  0  0  0  0
  3 15  1  0  0  0  0
  5  6  1  0  0  0  0
  5 16  1  0  0  0  0
  5 17  1  0  0  0  0
  6  7  1  0  0  0  0
  6 18  1  0  0  0  0
  6 19  1  0  0  0  0
  7  8  1  0  0  0  0
  7 20  1  0  0  0  0
  7 21  1  0  0  0  0
  8  9  1  0  0  0  0
  8 22  1  0  0  0  0
  9 10  1  0  0  0  0
  9 11  2  0  0  0  0
 10 23  1  0  0  0  0
 10 24  1  0  0  0  0
 11 25  1  0  0  0  0
 11 26  1  0  0  0  0
M  CHG  1  11   1
M  END
$$$$
