ligand
 OpenBabel03221815283D

 23 24  0  0  0  0  0  0  0  0999 V2000
   12.4790   43.7590   65.0810 N   0  0  0  0  0  0  0  0  0  0  0  0
   10.9900   42.7060   66.5120 N   0  0  0  0  0  0  0  0  0  0  0  0
   12.0180   43.5510   66.3110 C   0  0  0  0  0  0  0  0  0  0  0  0
   12.6160   44.2040   67.3880 N   0  0  0  0  0  0  0  0  0  0  0  0
   12.1150   43.9690   68.6700 C   0  0  0  0  0  0  0  0  0  0  0  0
   11.0420   43.1020   68.8490 C   0  0  0  0  0  0  0  0  0  0  0  0
   12.6270   44.5250   69.6410 O   0  0  0  0  0  0  0  0  0  0  0  0
   10.5650   42.8330   70.1460 N   0  0  0  0  0  0  0  0  0  0  0  0
    9.3870   41.9550   70.3970 C   0  0  2  0  0  0  0  0  0  0  0  0
    9.2800   40.9170   69.2670 C   0  0  0  0  0  0  0  0  0  0  0  0
   10.5030   42.4620   67.7420 C   0  0  0  0  0  0  0  0  0  0  0  0
    9.4390   41.5700   67.9220 N   0  0  0  0  0  0  0  0  0  0  0  0
    8.1050   42.8400   70.4250 C   0  0  0  0  0  0  0  0  0  0  0  0
   12.0622   43.3017   64.3152 H   0  0  0  0  0  0  0  0  0  0  0  0
   13.2370   44.3703   64.9362 H   0  0  0  0  0  0  0  0  0  0  0  0
   11.0262   43.2395   70.9150 H   0  0  0  0  0  0  0  0  0  0  0  0
    9.4948   41.4457   71.3318 H   0  0  0  0  0  0  0  0  0  0  0  0
    8.3216   40.4438   69.3156 H   0  0  0  0  0  0  0  0  0  0  0  0
   10.0599   40.1950   69.3909 H   0  0  0  0  0  0  0  0  0  0  0  0
    8.8122   41.3757   67.1881 H   0  0  0  0  0  0  0  0  0  0  0  0
    8.0012   43.3472   69.4886 H   0  0  0  0  0  0  0  0  0  0  0  0
    8.1852   43.5591   71.2132 H   0  0  0  0  0  0  0  0  0  0  0  0
    7.2481   42.2214   70.5924 H   0  0  0  0  0  0  0  0  0  0  0  0
  1  3  1  0  0  0  0
  1 14  1  0  0  0  0
  1 15  1  0  0  0  0
  2  3  2  0  0  0  0
  2 11  1  0  0  0  0
  3  4  1  0  0  0  0
  4  5  1  0  0  0  0
  5  6  1  0  0  0  0
  5  7  2  0  0  0  0
  6  8  1  0  0  0  0
  6 11  2  0  0  0  0
  8  9  1  0  0  0  0
  8 16  1  0  0  0  0
  9 10  1  0  0  0  0
  9 13  1  0  0  0  0
  9 17  1  1  0  0  0
 10 12  1  0  0  0  0
 10 18  1  0  0  0  0
 10 19  1  0  0  0  0
 11 12  1  0  0  0  0
 12 20  1  0  0  0  0
 13 21  1  0  0  0  0
 13 22  1  0  0  0  0
 13 23  1  0  0  0  0
M  END
$$$$
