1G4Q_MPD_A_25
 OpenBabel03221816523D

 22 21  0  0  1  0  0  0  0  0999 V2000
    0.8889    0.0155   -0.0390 C   0  0  0  0  0  0  0  0  0  0  0  0
    2.4142   -0.0847    0.1003 C   0  0  0  0  0  0  0  0  0  0  0  0
    2.9266    1.2372    0.2939 O   0  0  0  0  0  0  0  0  0  0  0  0
    2.7542   -0.9191    1.3369 C   0  0  0  0  0  0  0  0  0  0  0  0
    2.9998   -0.6508   -1.2109 C   0  0  0  0  0  0  0  0  0  0  0  0
    4.5297   -0.7288   -1.3018 C   0  0  1  0  0  0  0  0  0  0  0  0
    4.9809    0.2556   -1.1330 H   0  0  0  0  0  0  0  0  0  0  0  0
    5.0501   -1.6472   -0.3452 O   0  0  0  0  0  0  0  0  0  0  0  0
    4.9577   -1.2426   -2.6725 C   0  0  0  0  0  0  0  0  0  0  0  0
    0.4381    0.4487    0.8614 H   0  0  0  0  0  0  0  0  0  0  0  0
    0.4367   -0.9670   -0.2113 H   0  0  0  0  0  0  0  0  0  0  0  0
    0.6132    0.6769   -0.8682 H   0  0  0  0  0  0  0  0  0  0  0  0
    2.5046    1.6047    1.0912 H   0  0  0  0  0  0  0  0  0  0  0  0
    2.1500   -0.6051    2.1963 H   0  0  0  0  0  0  0  0  0  0  0  0
    3.7925   -0.7750    1.6490 H   0  0  0  0  0  0  0  0  0  0  0  0
    2.5705   -1.9847    1.1672 H   0  0  0  0  0  0  0  0  0  0  0  0
    2.6604   -0.0123   -2.0386 H   0  0  0  0  0  0  0  0  0  0  0  0
    2.5779   -1.6502   -1.3793 H   0  0  0  0  0  0  0  0  0  0  0  0
    5.5009   -1.1159    0.3345 H   0  0  0  0  0  0  0  0  0  0  0  0
    4.6272   -0.5763   -3.4742 H   0  0  0  0  0  0  0  0  0  0  0  0
    4.5506   -2.2430   -2.8600 H   0  0  0  0  0  0  0  0  0  0  0  0
    6.0478   -1.3379   -2.7229 H   0  0  0  0  0  0  0  0  0  0  0  0
  1  2  1  0  0  0  0
  1 10  1  0  0  0  0
  1 11  1  0  0  0  0
  1 12  1  0  0  0  0
  2  3  1  0  0  0  0
  2  4  1  0  0  0  0
  2  5  1  0  0  0  0
  3 13  1  0  0  0  0
  4 14  1  0  0  0  0
  4 15  1  0  0  0  0
  4 16  1  0  0  0  0
  5  6  1  0  0  0  0
  5 17  1  0  0  0  0
  5 18  1  0  0  0  0
  6  7  1  1  0  0  0
  6  8  1  0  0  0  0
  6  9  1  0  0  0  0
  8 19  1  0  0  0  0
  9 20  1  0  0  0  0
  9 21  1  0  0  0  0
  9 22  1  0  0  0  0
M  END
$$$$
