3SKZ_GMP_A_120
 OpenBabel10091713573D
Coordinates from PDB:3SKZ:A:120 Model:1 without hydrogens
 33 35  0  0  1  0  0  0  0  0999 V2000
    7.2000   -7.5080  -59.7860 O   0  0  0  0  0  0  0  0  0  0  0  0
    8.1250   -6.4800  -59.4720 C   0  0  0  0  0  0  0  0  0  0  0  0
    8.6270   -6.6200  -58.0630 C   0  0  1  0  0  0  0  0  0  0  0  0
    8.5100   -5.3480  -57.3750 O   0  0  0  0  0  0  0  0  0  0  0  0
    7.8590   -7.5950  -57.1910 C   0  0  1  0  0  0  0  0  0  0  0  0
    8.2650   -8.9440  -57.3780 O   0  0  0  0  0  0  0  0  0  0  0  0
    8.1110   -7.0590  -55.7880 C   0  0  1  0  0  0  0  0  0  0  0  0
    9.4030   -7.4380  -55.3200 O   0  0  0  0  0  0  0  0  0  0  0  0
    8.1080   -5.5500  -56.0480 C   0  0  2  0  0  0  0  0  0  0  0  0
    6.7700   -4.9650  -55.9030 N   0  0  0  0  0  0  0  0  0  0  0  0
    5.6230   -5.6020  -55.6410 C   0  0  0  0  0  0  0  0  0  0  0  0
    4.6270   -4.6820  -55.6160 N   0  0  0  0  0  0  0  0  0  0  0  0
    5.1670   -3.4740  -55.8830 C   0  0  0  0  0  0  0  0  0  0  0  0
    4.6460   -2.1960  -55.9890 C   0  0  0  0  0  0  0  0  0  0  0  0
    3.4260   -2.0080  -55.8100 O   0  0  0  0  0  0  0  0  0  0  0  0
    5.4600   -1.1600  -56.2740 N   0  0  0  0  0  0  0  0  0  0  0  0
    6.7770   -1.3680  -56.4270 C   0  0  0  0  0  0  0  0  0  0  0  0
    7.5840   -0.3170  -56.7160 N   0  0  0  0  0  0  0  0  0  0  0  0
    7.3080   -2.6100  -56.3290 N   0  0  0  0  0  0  0  0  0  0  0  0
    6.5180   -3.6680  -56.0630 C   0  0  0  0  0  0  0  0  0  0  0  0
    6.8906   -7.3969  -60.6986 H   0  0  0  0  0  0  0  0  0  0  0  0
    7.6430   -5.5308  -59.5791 H   0  0  0  0  0  0  0  0  0  0  0  0
    8.9577   -6.5548  -60.1398 H   0  0  0  0  0  0  0  0  0  0  0  0
    9.6288   -6.9758  -58.1839 H   0  0  0  0  0  0  0  0  0  0  0  0
    6.8161   -7.6446  -57.4250 H   0  0  0  0  0  0  0  0  0  0  0  0
    9.2133   -9.0251  -57.1909 H   0  0  0  0  0  0  0  0  0  0  0  0
    7.4074   -7.4090  -55.0618 H   0  0  0  0  0  0  0  0  0  0  0  0
   10.0761   -7.1391  -55.9513 H   0  0  0  0  0  0  0  0  0  0  0  0
    8.7602   -5.0865  -55.3376 H   0  0  0  0  0  0  0  0  0  0  0  0
    5.5151   -6.6164  -55.4851 H   0  0  0  0  0  0  0  0  0  0  0  0
    5.0893   -0.2530  -56.3697 H   0  0  0  0  0  0  0  0  0  0  0  0
    7.2054    0.5889  -56.7889 H   0  0  0  0  0  0  0  0  0  0  0  0
    8.5484   -0.4599  -56.8529 H   0  0  0  0  0  0  0  0  0  0  0  0
  1  2  1  0  0  0  0
  1 21  1  0  0  0  0
  2  3  1  0  0  0  0
  2 22  1  0  0  0  0
  2 23  1  0  0  0  0
  3  4  1  0  0  0  0
  3  5  1  0  0  0  0
  3 24  1  6  0  0  0
  4  9  1  0  0  0  0
  5  6  1  0  0  0  0
  5  7  1  0  0  0  0
  5 25  1  6  0  0  0
  6 26  1  0  0  0  0
  7  8  1  0  0  0  0
  7  9  1  0  0  0  0
  7 27  1  1  0  0  0
  8 28  1  0  0  0  0
  9 10  1  0  0  0  0
  9 29  1  1  0  0  0
 10 11  1  0  0  0  0
 10 20  1  0  0  0  0
 11 12  2  0  0  0  0
 11 30  1  0  0  0  0
 12 13  1  0  0  0  0
 13 14  1  0  0  0  0
 13 20  2  0  0  0  0
 14 15  2  0  0  0  0
 14 16  1  0  0  0  0
 16 17  1  0  0  0  0
 16 31  1  0  0  0  0
 17 18  1  0  0  0  0
 17 19  2  0  0  0  0
 18 32  1  0  0  0  0
 18 33  1  0  0  0  0
 19 20  1  0  0  0  0
M  END
$$$$
