temp2.pdb
 OpenBabel10091713583D

 38 40  0  0  1  0  0  0  0  0999 V2000
    4.5200    1.9210   20.1020 C   0  0  0  0  0  0  0  0  0  0  0  0
    3.0300    2.2030   20.3750 C   0  0  0  0  0  0  0  0  0  0  0  0
    2.7460    3.4920   21.1860 C   0  0  0  0  0  0  0  0  0  0  0  0
    1.2680    3.7200   21.4810 C   0  0  0  0  0  0  0  0  0  0  0  0
    0.6560    4.4850   22.5650 C   0  0  2  0  0  0  0  0  0  0  0  0
    1.1320    5.2640   23.6870 C   0  0  0  0  0  0  0  0  0  0  0  0
    0.2090    5.8740   24.5260 N   0  0  0  0  0  0  0  0  0  0  0  0
   -1.1350    5.7390   24.3310 C   0  0  0  0  0  0  0  0  0  0  0  0
   -2.0710    6.3890   25.2540 N   0  0  0  0  0  0  0  0  0  0  0  0
   -1.6120    5.0240   23.3000 N   0  0  0  0  0  0  0  0  0  0  0  0
    2.4980    5.4010   23.9180 O   0  0  0  0  0  0  0  0  0  0  0  0
   -0.7210    4.3840   22.4000 C   0  0  0  0  0  0  0  0  0  0  0  0
   -0.9340    3.6010   21.2830 N   0  0  0  0  0  0  0  0  0  0  0  0
    0.2280    3.1890   20.7120 C   0  0  0  0  0  0  0  0  0  0  0  0
    5.2440    1.1360   21.0230 C   0  0  0  0  0  0  0  0  0  0  0  0
    6.5910    0.8850   20.8000 C   0  0  0  0  0  0  0  0  0  0  0  0
    7.2150    1.4260   19.6490 C   0  0  0  0  0  0  0  0  0  0  0  0
    8.6760    1.1760   19.3840 C   0  0  0  0  0  0  0  0  0  0  0  0
    9.5370    2.2990   19.1240 N   0  0  0  0  0  0  0  0  0  0  0  0
    9.1190    0.0290   19.3970 O   0  0  0  0  0  0  0  0  0  0  0  0
    6.4960    2.2170   18.7360 C   0  0  0  0  0  0  0  0  0  0  0  0
    5.1450    2.4670   18.9610 C   0  0  0  0  0  0  0  0  0  0  0  0
    2.6293    1.3734   20.9191 H   0  0  0  0  0  0  0  0  0  0  0  0
    2.5720    2.3444   19.4183 H   0  0  0  0  0  0  0  0  0  0  0  0
    3.1117    4.3288   20.6285 H   0  0  0  0  0  0  0  0  0  0  0  0
    3.2387    3.3816   22.1294 H   0  0  0  0  0  0  0  0  0  0  0  0
    1.6413    4.7194   22.9101 H   0  0  0  0  0  0  0  0  0  0  0  0
    0.0000    0.0000    0.0000 H   0  0  0  0  0  0  0  0  0  0  0  0
   -2.9495    6.6938   24.9306 H   0  0  0  0  0  0  0  0  0  0  0  0
   -1.8209    6.5206   26.1971 H   0  0  0  0  0  0  0  0  0  0  0  0
    0.0000    0.0000    0.0000 H   0  0  0  0  0  0  0  0  0  0  0  0
    0.3245    2.5976   19.8718 H   0  0  0  0  0  0  0  0  0  0  0  0
    4.7753    0.7505   21.8577 H   0  0  0  0  0  0  0  0  0  0  0  0
    7.1318    0.3107   21.4653 H   0  0  0  0  0  0  0  0  0  0  0  0
    9.1673    3.2114   19.1170 H   0  0  0  0  0  0  0  0  0  0  0  0
   10.4958    2.1550   18.9531 H   0  0  0  0  0  0  0  0  0  0  0  0
    6.9660    2.6094   17.9053 H   0  0  0  0  0  0  0  0  0  0  0  0
    4.6055    3.0465   18.2991 H   0  0  0  0  0  0  0  0  0  0  0  0
  1 22  2  0  0  0  0
  1 15  1  0  0  0  0
  1  2  1  0  0  0  0
  2  3  1  0  0  0  0
  2 23  1  0  0  0  0
  2 24  1  0  0  0  0
  3  4  1  0  0  0  0
  3 25  1  0  0  0  0
  3 26  1  0  0  0  0
  4 14  2  0  0  0  0
  5  4  1  0  0  0  0
  5 12  1  0  0  0  0
  5  6  1  0  0  0  0
  5 27  1  6  0  0  0
  6 11  2  0  0  0  0
  6  7  2  0  0  0  0
  7  8  2  0  0  0  0
  7 28  1  0  0  0  0
  8 10  2  0  0  0  0
  8  9  1  0  0  0  0
  9 29  1  0  0  0  0
  9 30  1  0  0  0  0
 10 12  2  0  0  0  0
 10 31  1  0  0  0  0
 12 13  2  0  0  0  0
 13 14  1  0  0  0  0
 14 32  1  0  0  0  0
 15 16  2  0  0  0  0
 15 33  1  0  0  0  0
 16 17  1  0  0  0  0
 16 34  1  0  0  0  0
 17 21  2  0  0  0  0
 17 18  1  0  0  0  0
 18 20  2  0  0  0  0
 18 19  1  0  0  0  0
 19 35  1  0  0  0  0
 19 36  1  0  0  0  0
 21 22  1  0  0  0  0
 21 37  1  0  0  0  0
 22 38  1  0  0  0  0
M  END
$$$$
