2KU0_ISI_A_39
 OpenBabel03221817243D

 50 52  0  0  1  0  0  0  0  0999 V2000
   -0.7040    1.8437   -0.0965 C   0  0  0  0  0  0  0  0  0  0  0  0
    0.6957    1.9024   -0.0705 C   0  0  0  0  0  0  0  0  0  0  0  0
    1.4276    0.7112   -0.0423 C   0  0  0  0  0  0  0  0  0  0  0  0
    0.7404   -0.4822   -0.0260 C   0  0  0  0  0  0  0  0  0  0  0  0
   -0.6150   -0.6584   -0.0322 C   0  0  0  0  0  0  0  0  0  0  0  0
   -1.3158    0.5966   -0.0987 C   0  0  0  0  0  0  0  0  0  0  0  0
   -2.6949    0.4511   -0.1360 O   0  0  0  0  0  0  0  0  0  0  0  0
   -2.8985   -0.9783   -0.3287 C   0  0  1  0  0  0  0  0  0  0  0  0
   -3.0630   -1.1037   -1.4090 H   0  0  0  0  0  0  0  0  0  0  0  0
   -1.6098   -1.7257    0.0576 C   0  0  0  0  0  0  0  0  0  0  0  0
   -4.1594   -1.5047    0.3894 C   0  0  0  0  0  0  0  0  0  0  0  0
   -4.1646   -1.5018    1.8704 N   0  0  0  0  0  0  0  0  0  0  0  0
   -4.1117   -0.1389    2.4099 C   0  0  0  0  0  0  0  0  0  0  0  0
   -5.3760   -2.1681    2.3609 C   0  0  0  0  0  0  0  0  0  0  0  0
    1.6686   -1.4679    0.0167 N   0  0  0  0  0  0  0  0  0  0  0  0
    2.8996   -0.8356    0.0360 C   0  0  0  0  0  0  0  0  0  0  0  0
    4.0612   -1.5084    0.0861 N   0  0  0  0  0  0  0  0  0  0  0  0
    2.7759    0.4722   -0.0084 N   0  0  0  0  0  0  0  0  0  0  0  0
    1.4506   -2.8993    0.0737 C   0  0  0  0  0  0  0  0  0  0  0  0
    1.2228   -3.5397   -1.2992 C   0  0  0  0  0  0  0  0  0  0  0  0
    2.4798   -3.6146   -2.1753 C   0  0  0  0  0  0  0  0  0  0  0  0
    3.6259   -4.2690   -1.5168 N   0  0  0  0  0  0  0  0  0  0  0  0
    3.3447   -5.6782   -1.2153 C   0  0  0  0  0  0  0  0  0  0  0  0
    4.8083   -4.1861   -2.3826 C   0  0  0  0  0  0  0  0  0  0  0  0
   -1.3057    2.7441   -0.1099 H   0  0  0  0  0  0  0  0  0  0  0  0
    1.2128    2.8550   -0.0658 H   0  0  0  0  0  0  0  0  0  0  0  0
   -1.4382   -2.5579   -0.6288 H   0  0  0  0  0  0  0  0  0  0  0  0
   -1.6461   -2.1205    1.0779 H   0  0  0  0  0  0  0  0  0  0  0  0
   -5.0299   -0.9493    0.0180 H   0  0  0  0  0  0  0  0  0  0  0  0
   -4.2803   -2.5471    0.0625 H   0  0  0  0  0  0  0  0  0  0  0  0
   -3.1270    0.3088    2.2565 H   0  0  0  0  0  0  0  0  0  0  0  0
   -4.2608   -0.1438    3.4959 H   0  0  0  0  0  0  0  0  0  0  0  0
   -4.8752    0.5110    1.9668 H   0  0  0  0  0  0  0  0  0  0  0  0
   -5.3977   -3.2141    2.0361 H   0  0  0  0  0  0  0  0  0  0  0  0
   -6.2896   -1.6754    2.0085 H   0  0  0  0  0  0  0  0  0  0  0  0
   -5.3941   -2.1831    3.4567 H   0  0  0  0  0  0  0  0  0  0  0  0
    4.1207   -2.4517   -0.2987 H   0  0  0  0  0  0  0  0  0  0  0  0
    4.8889   -0.9518   -0.1011 H   0  0  0  0  0  0  0  0  0  0  0  0
    0.5796   -3.0731    0.7128 H   0  0  0  0  0  0  0  0  0  0  0  0
    2.2858   -3.3620    0.6087 H   0  0  0  0  0  0  0  0  0  0  0  0
    0.4582   -2.9861   -1.8571 H   0  0  0  0  0  0  0  0  0  0  0  0
    0.8149   -4.5471   -1.1538 H   0  0  0  0  0  0  0  0  0  0  0  0
    2.7582   -2.5903   -2.4537 H   0  0  0  0  0  0  0  0  0  0  0  0
    2.2274   -4.1287   -3.1127 H   0  0  0  0  0  0  0  0  0  0  0  0
    2.5565   -5.7706   -0.4611 H   0  0  0  0  0  0  0  0  0  0  0  0
    4.2269   -6.1650   -0.7851 H   0  0  0  0  0  0  0  0  0  0  0  0
    3.0404   -6.2394   -2.1062 H   0  0  0  0  0  0  0  0  0  0  0  0
    5.0625   -3.1403   -2.5871 H   0  0  0  0  0  0  0  0  0  0  0  0
    4.6596   -4.7014   -3.3382 H   0  0  0  0  0  0  0  0  0  0  0  0
    5.6777   -4.6262   -1.8816 H   0  0  0  0  0  0  0  0  0  0  0  0
  1  2  2  0  0  0  0
  1  6  1  0  0  0  0
  1 25  1  0  0  0  0
  2  3  1  0  0  0  0
  2 26  1  0  0  0  0
  3  4  2  0  0  0  0
  3 18  1  0  0  0  0
  4  5  1  0  0  0  0
  4 15  1  0  0  0  0
  5  6  2  0  0  0  0
  5 10  1  0  0  0  0
  6  7  1  0  0  0  0
  7  8  1  0  0  0  0
  8 10  1  0  0  0  0
  8 11  1  0  0  0  0
  8  9  1  6  0  0  0
 10 27  1  0  0  0  0
 10 28  1  0  0  0  0
 11 12  1  0  0  0  0
 11 29  1  0  0  0  0
 11 30  1  0  0  0  0
 12 13  1  0  0  0  0
 12 14  1  0  0  0  0
 13 31  1  0  0  0  0
 13 32  1  0  0  0  0
 13 33  1  0  0  0  0
 14 34  1  0  0  0  0
 14 35  1  0  0  0  0
 14 36  1  0  0  0  0
 15 16  1  0  0  0  0
 15 19  1  0  0  0  0
 16 17  1  0  0  0  0
 16 18  2  0  0  0  0
 17 37  1  0  0  0  0
 17 38  1  0  0  0  0
 19 20  1  0  0  0  0
 19 39  1  0  0  0  0
 19 40  1  0  0  0  0
 20 21  1  0  0  0  0
 20 41  1  0  0  0  0
 20 42  1  0  0  0  0
 21 22  1  0  0  0  0
 21 43  1  0  0  0  0
 21 44  1  0  0  0  0
 22 23  1  0  0  0  0
 22 24  1  0  0  0  0
 23 45  1  0  0  0  0
 23 46  1  0  0  0  0
 23 47  1  0  0  0  0
 24 48  1  0  0  0  0
 24 49  1  0  0  0  0
 24 50  1  0  0  0  0
M  END
$$$$
