1EI2_NMY_A_26
 OpenBabel10091713573D
Coordinates from PDB:1EI2:A:26 Model:1 without hydrogens
 88 91  0  0  1  0  0  0  0  0999 V2000
   -7.4710    3.9480    0.8680 C   0  0  2  0  0  0  0  0  0  0  0  0
   -6.5560    3.4340    1.8840 O   0  0  0  0  0  0  0  0  0  0  0  0
   -7.6160    5.5020    0.9570 C   0  0  2  0  0  0  0  0  0  0  0  0
   -6.5490    6.1040    1.7890 N   0  0  0  0  0  0  0  0  0  0  0  0
   -9.0220    5.8930    1.5040 C   0  0  1  0  0  0  0  0  0  0  0  0
   -9.1460    7.3120    1.5710 O   0  0  0  0  0  0  0  0  0  0  0  0
  -10.1630    5.3410    0.6080 C   0  0  2  0  0  0  0  0  0  0  0  0
  -11.3970    5.4770    1.3040 O   0  0  0  0  0  0  0  0  0  0  0  0
   -9.9190    3.8420    0.2380 C   0  0  2  0  0  0  0  0  0  0  0  0
   -8.7880    3.3120    1.0030 O   0  0  0  0  0  0  0  0  0  0  0  0
   -9.5940    3.5940   -1.2530 C   0  0  0  0  0  0  0  0  0  0  0  0
   -2.4260    2.1850    1.9380 C   0  0  1  0  0  0  0  0  0  0  0  0
   -1.1650    1.4520    1.6870 N   0  0  0  0  0  0  0  0  0  0  0  0
   -2.9060    2.9420    0.6720 C   0  0  1  0  0  0  0  0  0  0  0  0
   -4.3140    3.6140    0.8330 C   0  0  1  0  0  0  0  0  0  0  0  0
   -4.7870    3.9980   -0.4860 O   0  0  0  0  0  0  0  0  0  0  0  0
   -5.3920    2.6580    1.4640 C   0  0  1  0  0  0  0  0  0  0  0  0
   -4.8430    1.9020    2.7170 C   0  0  1  0  0  0  0  0  0  0  0  0
   -5.8000    0.8960    3.2210 N   0  0  0  0  0  0  0  0  0  0  0  0
   -3.5040    1.1910    2.4180 C   0  0  0  0  0  0  0  0  0  0  0  0
   -4.5050    5.3360   -0.9890 C   0  0  1  0  0  0  0  0  0  0  0  0
   -3.3070    5.2590   -1.9280 C   0  0  1  0  0  0  0  0  0  0  0  0
   -3.9920    4.7600   -3.1930 C   0  0  1  0  0  0  0  0  0  0  0  0
   -5.2900    5.5800   -3.1870 C   0  0  2  0  0  0  0  0  0  0  0  0
   -5.6030    5.8010   -1.7910 O   0  0  0  0  0  0  0  0  0  0  0  0
   -6.4590    4.8620   -3.8850 C   0  0  0  0  0  0  0  0  0  0  0  0
   -3.1220    1.2190   -3.8950 C   0  0  1  0  0  0  0  0  0  0  0  0
   -3.8340    1.9630   -5.0590 C   0  0  1  0  0  0  0  0  0  0  0  0
   -2.9340    2.9950   -5.7980 C   0  0  2  0  0  0  0  0  0  0  0  0
   -2.2620    3.9820   -4.7900 C   0  0  1  0  0  0  0  0  0  0  0  0
   -3.1880    5.0270   -4.3780 O   0  0  0  0  0  0  0  0  0  0  0  0
   -1.6970    1.8030   -3.6530 C   0  0  1  0  0  0  0  0  0  0  0  0
   -1.7700    3.2650   -3.5910 O   0  0  0  0  0  0  0  0  0  0  0  0
   -1.0510    1.2680   -2.3490 C   0  0  0  0  0  0  0  0  0  0  0  0
  -10.7000    3.9010   -2.1770 N   0  0  0  0  0  0  0  0  0  0  0  0
   -2.7530    6.5620   -2.1120 O   0  0  0  0  0  0  0  0  0  0  0  0
   -4.2840    0.9930   -6.0040 O   0  0  0  0  0  0  0  0  0  0  0  0
   -3.9180    1.3580   -2.7160 O   0  0  0  0  0  0  0  0  0  0  0  0
   -6.7360    3.6210   -3.2590 O   0  0  0  0  0  0  0  0  0  0  0  0
   -1.9520    3.9550    0.3540 O   0  0  0  0  0  0  0  0  0  0  0  0
   -0.3010    2.3030   -1.6140 N   0  0  0  0  0  0  0  0  0  0  0  0
   -3.6820    3.6960   -6.8710 N   0  0  0  0  0  0  0  0  0  0  0  0
   -7.0589    3.7106   -0.0905 H   0  0  0  0  0  0  0  0  0  0  0  0
   -7.5131    5.8919   -0.0341 H   0  0  0  0  0  0  0  0  0  0  0  0
   -6.6214    5.7503    2.7430 H   0  0  0  0  0  0  0  0  0  0  0  0
   -6.6533    7.1186    1.7938 H   0  0  0  0  0  0  0  0  0  0  0  0
   -9.1107    5.4628    2.4797 H   0  0  0  0  0  0  0  0  0  0  0  0
   -9.0635    7.6862    0.6799 H   0  0  0  0  0  0  0  0  0  0  0  0
  -10.1896    5.8995   -0.3043 H   0  0  0  0  0  0  0  0  0  0  0  0
  -11.3612    4.9671    2.1284 H   0  0  0  0  0  0  0  0  0  0  0  0
  -10.8430    3.3537    0.4677 H   0  0  0  0  0  0  0  0  0  0  0  0
   -9.3353    2.5626   -1.3719 H   0  0  0  0  0  0  0  0  0  0  0  0
   -8.7930    4.2571   -1.5050 H   0  0  0  0  0  0  0  0  0  0  0  0
   -2.2503    2.9182    2.6972 H   0  0  0  0  0  0  0  0  0  0  0  0
   -1.3185    0.7489    0.9642 H   0  0  0  0  0  0  0  0  0  0  0  0
   -0.8605    0.9951    2.5466 H   0  0  0  0  0  0  0  0  0  0  0  0
   -2.9957    2.2142   -0.1072 H   0  0  0  0  0  0  0  0  0  0  0  0
   -4.1917    4.4484    1.4916 H   0  0  0  0  0  0  0  0  0  0  0  0
   -5.6537    1.9424    0.7127 H   0  0  0  0  0  0  0  0  0  0  0  0
   -4.6915    2.6530    3.4640 H   0  0  0  0  0  0  0  0  0  0  0  0
   -5.9456    0.1792    2.5101 H   0  0  0  0  0  0  0  0  0  0  0  0
   -6.6887    1.3490    3.4342 H   0  0  0  0  0  0  0  0  0  0  0  0
   -3.1599    0.7099    3.3097 H   0  0  0  0  0  0  0  0  0  0  0  0
   -3.6715    0.4777    1.6382 H   0  0  0  0  0  0  0  0  0  0  0  0
   -4.3325    5.9847   -0.1557 H   0  0  0  0  0  0  0  0  0  0  0  0
   -2.4925    4.6486   -1.5980 H   0  0  0  0  0  0  0  0  0  0  0  0
   -4.1503    3.7020   -3.2145 H   0  0  0  0  0  0  0  0  0  0  0  0
   -5.1501    6.4905   -3.7314 H   0  0  0  0  0  0  0  0  0  0  0  0
   -6.2022    4.6883   -4.9091 H   0  0  0  0  0  0  0  0  0  0  0  0
   -7.3294    5.4807   -3.8180 H   0  0  0  0  0  0  0  0  0  0  0  0
   -3.0122    0.1848   -4.1465 H   0  0  0  0  0  0  0  0  0  0  0  0
   -4.6403    2.5166   -4.6250 H   0  0  0  0  0  0  0  0  0  0  0  0
   -2.1423    2.4601   -6.2797 H   0  0  0  0  0  0  0  0  0  0  0  0
   -1.4329    4.4315   -5.2955 H   0  0  0  0  0  0  0  0  0  0  0  0
   -1.0821    1.4905   -4.4710 H   0  0  0  0  0  0  0  0  0  0  0  0
   -0.3794    0.4742   -2.6014 H   0  0  0  0  0  0  0  0  0  0  0  0
   -1.8429    0.9323   -1.7125 H   0  0  0  0  0  0  0  0  0  0  0  0
  -11.4916    3.2905   -1.9745 H   0  0  0  0  0  0  0  0  0  0  0  0
  -10.3920    3.7510   -3.1377 H   0  0  0  0  0  0  0  0  0  0  0  0
   -3.4470    7.1688   -2.4138 H   0  0  0  0  0  0  0  0  0  0  0  0
   -3.5206    0.5185   -6.3687 H   0  0  0  0  0  0  0  0  0  0  0  0
   -4.0109    2.2985   -2.4976 H   0  0  0  0  0  0  0  0  0  0  0  0
   -5.9538    3.0499   -3.3129 H   0  0  0  0  0  0  0  0  0  0  0  0
   -1.9016    4.5922    1.0836 H   0  0  0  0  0  0  0  0  0  0  0  0
    0.4641    2.6456   -2.1951 H   0  0  0  0  0  0  0  0  0  0  0  0
    0.0770    1.9034   -0.7550 H   0  0  0  0  0  0  0  0  0  0  0  0
   -4.4520    4.2236   -6.4598 H   0  0  0  0  0  0  0  0  0  0  0  0
   -4.0526    3.0114   -7.5301 H   0  0  0  0  0  0  0  0  0  0  0  0
  1 10  1  0  0  0  0
  1  2  1  0  0  0  0
  1  3  1  0  0  0  0
  1 43  1  6  0  0  0
  2 17  1  0  0  0  0
  3  4  1  0  0  0  0
  3  5  1  0  0  0  0
  3 44  1  6  0  0  0
  4 45  1  0  0  0  0
  4 46  1  0  0  0  0
  5  7  1  0  0  0  0
  5  6  1  0  0  0  0
  5 47  1  1  0  0  0
  6 48  1  0  0  0  0
  7  9  1  0  0  0  0
  7  8  1  0  0  0  0
  7 49  1  6  0  0  0
  8 50  1  0  0  0  0
  9 10  1  0  0  0  0
  9 11  1  0  0  0  0
  9 51  1  1  0  0  0
 11 35  1  0  0  0  0
 11 52  1  0  0  0  0
 11 53  1  0  0  0  0
 12 13  1  0  0  0  0
 12 14  1  0  0  0  0
 12 20  1  0  0  0  0
 12 54  1  1  0  0  0
 13 55  1  0  0  0  0
 13 56  1  0  0  0  0
 14 40  1  0  0  0  0
 14 15  1  0  0  0  0
 14 57  1  6  0  0  0
 15 16  1  0  0  0  0
 15 17  1  0  0  0  0
 15 58  1  1  0  0  0
 16 21  1  0  0  0  0
 17 18  1  0  0  0  0
 17 59  1  6  0  0  0
 18 20  1  0  0  0  0
 18 19  1  0  0  0  0
 18 60  1  1  0  0  0
 19 61  1  0  0  0  0
 19 62  1  0  0  0  0
 20 63  1  0  0  0  0
 20 64  1  0  0  0  0
 21 22  1  0  0  0  0
 21 25  1  0  0  0  0
 21 65  1  1  0  0  0
 22 36  1  0  0  0  0
 22 23  1  0  0  0  0
 22 66  1  1  0  0  0
 23 31  1  0  0  0  0
 23 24  1  0  0  0  0
 23 67  1  1  0  0  0
 24 25  1  0  0  0  0
 24 26  1  0  0  0  0
 24 68  1  6  0  0  0
 26 39  1  0  0  0  0
 26 69  1  0  0  0  0
 26 70  1  0  0  0  0
 27 28  1  0  0  0  0
 27 32  1  0  0  0  0
 27 38  1  0  0  0  0
 27 71  1  6  0  0  0
 28 29  1  0  0  0  0
 28 37  1  0  0  0  0
 28 72  1  1  0  0  0
 29 42  1  0  0  0  0
 29 30  1  0  0  0  0
 29 73  1  6  0  0  0
 30 33  1  0  0  0  0
 30 31  1  0  0  0  0
 30 74  1  6  0  0  0
 32 33  1  0  0  0  0
 32 34  1  0  0  0  0
 32 75  1  6  0  0  0
 34 41  1  0  0  0  0
 34 76  1  0  0  0  0
 34 77  1  0  0  0  0
 35 78  1  0  0  0  0
 35 79  1  0  0  0  0
 36 80  1  0  0  0  0
 37 81  1  0  0  0  0
 38 82  1  0  0  0  0
 39 83  1  0  0  0  0
 40 84  1  0  0  0  0
 41 85  1  0  0  0  0
 41 86  1  0  0  0  0
 42 87  1  0  0  0  0
 42 88  1  0  0  0  0
M  END
$$$$
