temp2.pdb
 OpenBabel10091713583D

 31 32  0  0  1  0  0  0  0  0999 V2000
   -2.4380    5.9710   23.7220 N   0  0  0  0  0  0  0  0  0  0  0  0
   -1.3590    6.0030   22.8270 C   0  0  0  0  0  0  0  0  0  0  0  0
   -1.4630    5.3340   21.5170 N   0  0  0  0  0  0  0  0  0  0  0  0
   -0.5180    5.6480   20.5360 C   0  0  0  0  0  0  0  0  0  0  0  0
    0.9210    5.9080   21.0560 C   0  0  1  0  0  0  0  0  0  0  0  0
    0.9660    6.7130   22.2240 N   0  0  0  0  0  0  0  0  0  0  0  0
    1.7040    4.6370   21.3300 C   0  0  2  0  0  0  0  0  0  0  0  0
    2.9760    4.6270   20.5360 C   0  0  1  0  0  0  0  0  0  0  0  0
    3.0230    5.6770   19.7040 O   0  0  0  0  0  0  0  0  0  0  0  0
    4.2100    4.6910   21.4610 C   0  0  0  0  0  0  0  0  0  0  0  0
    0.9420    3.5240   21.0350 O   0  0  0  0  0  0  0  0  0  0  0  0
   -0.1500    6.6820   23.1660 C   0  0  0  0  0  0  0  0  0  0  0  0
   -0.0710    7.3210   24.4430 C   0  0  0  0  0  0  0  0  0  0  0  0
   -1.1470    7.2750   25.3050 N   0  0  0  0  0  0  0  0  0  0  0  0
    0.9450    7.9060   24.7670 O   0  0  0  0  0  0  0  0  0  0  0  0
   -2.3080    6.6190   24.9570 C   0  0  0  0  0  0  0  0  0  0  0  0
   -3.3980    6.5970   25.8890 N   0  0  0  0  0  0  0  0  0  0  0  0
    0.0000    0.0000    0.0000 H   0  0  0  0  0  0  0  0  0  0  0  0
   -0.8498    6.5296   20.0284 H   0  0  0  0  0  0  0  0  0  0  0  0
   -0.4518    4.7869   19.9044 H   0  0  0  0  0  0  0  0  0  0  0  0
    1.3801    6.4375   20.2475 H   0  0  0  0  0  0  0  0  0  0  0  0
    1.9513    4.6092   22.3707 H   0  0  0  0  0  0  0  0  0  0  0  0
    2.9911    3.7141   19.9781 H   0  0  0  0  0  0  0  0  0  0  0  0
    3.0088    6.4987   20.2193 H   0  0  0  0  0  0  0  0  0  0  0  0
    4.1918    5.6049   22.0173 H   0  0  0  0  0  0  0  0  0  0  0  0
    5.1011    4.6508   20.8701 H   0  0  0  0  0  0  0  0  0  0  0  0
    4.1925    3.8617   22.1369 H   0  0  0  0  0  0  0  0  0  0  0  0
    0.7081    3.5325   20.0937 H   0  0  0  0  0  0  0  0  0  0  0  0
    0.0000    0.0000    0.0000 H   0  0  0  0  0  0  0  0  0  0  0  0
   -4.2753    6.9605   25.6291 H   0  0  0  0  0  0  0  0  0  0  0  0
   -3.2689    6.2184   26.7886 H   0  0  0  0  0  0  0  0  0  0  0  0
  1 16  2  0  0  0  0
  1  2  2  0  0  0  0
  1 18  1  0  0  0  0
  2 12  1  0  0  0  0
  2  3  2  0  0  0  0
  3  4  1  0  0  0  0
  4  5  1  0  0  0  0
  4 19  1  0  0  0  0
  4 20  1  0  0  0  0
  5  7  1  0  0  0  0
  5  6  1  0  0  0  0
  5 21  1  6  0  0  0
  6 12  2  0  0  0  0
  7 11  1  0  0  0  0
  7  8  1  0  0  0  0
  7 22  1  1  0  0  0
  8 10  1  0  0  0  0
  8  9  1  0  0  0  0
  8 23  1  6  0  0  0
  9 24  1  0  0  0  0
 10 25  1  0  0  0  0
 10 26  1  0  0  0  0
 10 27  1  0  0  0  0
 11 28  1  0  0  0  0
 12 13  1  0  0  0  0
 13 15  2  0  0  0  0
 13 14  2  0  0  0  0
 14 16  2  0  0  0  0
 14 29  1  0  0  0  0
 16 17  1  0  0  0  0
 17 30  1  0  0  0  0
 17 31  1  0  0  0  0
M  END
$$$$
