3DIR_IEL_A_175
 OpenBabel03221817293D

 30 29  0  0  1  0  0  0  0  0999 V2000
    2.3635    1.7445    2.3757 O   0  0  0  0  0  0  0  0  0  0  0  0
    2.4439    2.1354    1.2230 C   0  0  0  0  0  0  0  0  0  0  0  0
    2.1951    3.4138    0.8396 O   0  0  0  0  0  0  0  0  0  0  0  0
    2.8729    1.2733    0.0278 C   0  0  1  0  0  0  0  0  0  0  0  0
    2.3492    0.3137    0.1049 H   0  0  0  0  0  0  0  0  0  0  0  0
    2.4280    1.9345   -1.2321 N   0  0  0  0  0  0  0  0  0  0  0  0
    4.3903    1.0422    0.0362 C   0  0  0  0  0  0  0  0  0  0  0  0
    5.2412    2.3147   -0.1200 C   0  0  0  0  0  0  0  0  0  0  0  0
    6.7507    2.0359   -0.1594 C   0  0  0  0  0  0  0  0  0  0  0  0
    7.1549    1.1812   -1.3590 C   0  0  0  0  0  0  0  0  0  0  0  0
    8.5904    1.0110   -1.4321 N   0  0  0  0  0  0  0  0  0  0  0  0
    9.2319    0.1904   -2.3200 C   0  0  0  0  0  0  0  0  0  0  0  0
    8.6579   -0.4464   -3.2825 N   0  0  0  0  0  0  0  0  0  0  0  0
   10.7250    0.0141   -2.1777 C   0  0  0  0  0  0  0  0  0  0  0  0
    2.3461    3.4445   -0.1380 H   0  0  0  0  0  0  0  0  0  0  0  0
    1.4046    1.8631   -1.2771 H   0  0  0  0  0  0  0  0  0  0  0  0
    2.7454    1.3570   -2.0182 H   0  0  0  0  0  0  0  0  0  0  0  0
    4.6197    0.3405   -0.7730 H   0  0  0  0  0  0  0  0  0  0  0  0
    4.6742    0.5460    0.9730 H   0  0  0  0  0  0  0  0  0  0  0  0
    5.0431    2.9914    0.7202 H   0  0  0  0  0  0  0  0  0  0  0  0
    4.9584    2.8526   -1.0322 H   0  0  0  0  0  0  0  0  0  0  0  0
    7.0634    1.5496    0.7726 H   0  0  0  0  0  0  0  0  0  0  0  0
    7.2819    2.9966   -0.2007 H   0  0  0  0  0  0  0  0  0  0  0  0
    6.8006    1.6539   -2.2817 H   0  0  0  0  0  0  0  0  0  0  0  0
    6.6927    0.1928   -1.2820 H   0  0  0  0  0  0  0  0  0  0  0  0
    9.1349    1.4023   -0.6706 H   0  0  0  0  0  0  0  0  0  0  0  0
    7.6585   -0.2457   -3.2936 H   0  0  0  0  0  0  0  0  0  0  0  0
   11.1108    0.5653   -1.3167 H   0  0  0  0  0  0  0  0  0  0  0  0
   11.2158    0.3741   -3.0849 H   0  0  0  0  0  0  0  0  0  0  0  0
   10.9518   -1.0492   -2.0513 H   0  0  0  0  0  0  0  0  0  0  0  0
  1  2  2  0  0  0  0
  2  3  1  0  0  0  0
  2  4  1  0  0  0  0
  3 15  1  0  0  0  0
  4  5  1  1  0  0  0
  4  6  1  0  0  0  0
  4  7  1  0  0  0  0
  6 16  1  0  0  0  0
  6 17  1  0  0  0  0
  7  8  1  0  0  0  0
  7 18  1  0  0  0  0
  7 19  1  0  0  0  0
  8  9  1  0  0  0  0
  8 20  1  0  0  0  0
  8 21  1  0  0  0  0
  9 10  1  0  0  0  0
  9 22  1  0  0  0  0
  9 23  1  0  0  0  0
 10 11  1  0  0  0  0
 10 24  1  0  0  0  0
 10 25  1  0  0  0  0
 11 12  1  0  0  0  0
 11 26  1  0  0  0  0
 12 13  2  0  0  0  0
 12 14  1  0  0  0  0
 13 27  1  0  0  0  0
 14 28  1  0  0  0  0
 14 29  1  0  0  0  0
 14 30  1  0  0  0  0
M  END
$$$$
