3C44_PAR_A_24
 OpenBabel10091713573D
Coordinates from PDB:3C44:A:24 Model:1 without hydrogens
 87 90  0  0  1  0  0  0  0  0999 V2000
   37.0430   34.3840  -12.9210 C   0  0  2  0  0  0  0  0  0  0  0  0
   36.1360   34.2070  -14.0200 O   0  0  0  0  0  0  0  0  0  0  0  0
   38.4720   34.1110  -13.4020 C   0  0  2  0  0  0  0  0  0  0  0  0
   38.8010   34.9450  -14.5670 N   0  0  0  0  0  0  0  0  0  0  0  0
   38.6630   32.6380  -13.7720 C   0  0  1  0  0  0  0  0  0  0  0  0
   40.0440   32.4000  -14.0610 O   0  0  0  0  0  0  0  0  0  0  0  0
   38.2240   31.7490  -12.6070 C   0  0  2  0  0  0  0  0  0  0  0  0
   38.3000   30.3750  -12.9960 O   0  0  0  0  0  0  0  0  0  0  0  0
   36.7870   32.0940  -12.2130 C   0  0  2  0  0  0  0  0  0  0  0  0
   36.6910   33.4860  -11.8520 O   0  0  0  0  0  0  0  0  0  0  0  0
   36.4100   31.2160  -11.0170 C   0  0  0  0  0  0  0  0  0  0  0  0
   35.0230   31.4850  -10.6110 O   0  0  0  0  0  0  0  0  0  0  0  0
   32.7190   36.2440  -15.1880 C   0  0  2  0  0  0  0  0  0  0  0  0
   31.4270   36.9110  -15.4110 N   0  0  0  0  0  0  0  0  0  0  0  0
   32.5110   34.7670  -14.8410 C   0  0  0  0  0  0  0  0  0  0  0  0
   33.8910   34.1040  -14.7770 C   0  0  2  0  0  0  0  0  0  0  0  0
   33.7360   32.6950  -14.3850 N   0  0  0  0  0  0  0  0  0  0  0  0
   34.8420   34.7910  -13.7890 C   0  0  2  0  0  0  0  0  0  0  0  0
   34.9070   36.3100  -13.9340 C   0  0  2  0  0  0  0  0  0  0  0  0
   35.5840   36.8680  -12.7960 O   0  0  0  0  0  0  0  0  0  0  0  0
   33.5010   36.9100  -14.0530 C   0  0  1  0  0  0  0  0  0  0  0  0
   33.5880   38.3190  -14.2770 O   0  0  0  0  0  0  0  0  0  0  0  0
   36.4300   37.9910  -13.0990 C   0  0  1  0  0  0  0  0  0  0  0  0
   36.7270   38.7570  -11.8090 C   0  0  2  0  0  0  0  0  0  0  0  0
   35.6560   39.6570  -11.5180 O   0  0  0  0  0  0  0  0  0  0  0  0
   37.9400   39.5660  -12.2640 C   0  0  2  0  0  0  0  0  0  0  0  0
   37.5460   40.6190  -13.1590 O   0  0  0  0  0  0  0  0  0  0  0  0
   38.7080   38.5040  -13.0350 C   0  0  2  0  0  0  0  0  0  0  0  0
   37.7300   37.5820  -13.5630 O   0  0  0  0  0  0  0  0  0  0  0  0
   39.6810   37.7930  -12.0920 C   0  0  0  0  0  0  0  0  0  0  0  0
   40.4230   36.8210  -12.8320 O   0  0  0  0  0  0  0  0  0  0  0  0
   38.3070   41.8150  -12.9150 C   0  0  2  0  0  0  0  0  0  0  0  0
   37.7490   42.9620  -13.7640 C   0  0  2  0  0  0  0  0  0  0  0  0
   37.7280   42.5290  -15.1680 N   0  0  0  0  0  0  0  0  0  0  0  0
   38.6250   44.2160  -13.6450 C   0  0  1  0  0  0  0  0  0  0  0  0
   38.4870   44.8000  -12.3470 O   0  0  0  0  0  0  0  0  0  0  0  0
   40.0990   43.8810  -13.8790 C   0  0  2  0  0  0  0  0  0  0  0  0
   40.2760   43.5060  -15.2480 O   0  0  0  0  0  0  0  0  0  0  0  0
   40.5010   42.7300  -12.9530 C   0  0  1  0  0  0  0  0  0  0  0  0
   39.6820   41.5890  -13.2640 O   0  0  0  0  0  0  0  0  0  0  0  0
   41.9730   42.3470  -13.1110 C   0  0  0  0  0  0  0  0  0  0  0  0
   42.1900   41.8060  -14.4600 N   0  0  0  0  0  0  0  0  0  0  0  0
   36.9818   35.3878  -12.5555 H   0  0  0  0  0  0  0  0  0  0  0  0
   39.1282   34.3546  -12.5927 H   0  0  0  0  0  0  0  0  0  0  0  0
   38.1756   34.7130  -15.3387 H   0  0  0  0  0  0  0  0  0  0  0  0
   39.7662   34.7716  -14.8476 H   0  0  0  0  0  0  0  0  0  0  0  0
   38.0692   32.4075  -14.6317 H   0  0  0  0  0  0  0  0  0  0  0  0
   40.5788   32.6101  -13.2795 H   0  0  0  0  0  0  0  0  0  0  0  0
   38.8702   31.9152  -11.7705 H   0  0  0  0  0  0  0  0  0  0  0  0
   37.7152   30.2208  -13.7544 H   0  0  0  0  0  0  0  0  0  0  0  0
   36.1230   31.9174  -13.0333 H   0  0  0  0  0  0  0  0  0  0  0  0
   37.0661   31.4306  -10.1995 H   0  0  0  0  0  0  0  0  0  0  0  0
   36.5004   30.1868  -11.2954 H   0  0  0  0  0  0  0  0  0  0  0  0
   34.9353   32.4171  -10.3574 H   0  0  0  0  0  0  0  0  0  0  0  0
   33.2787   36.3285  -16.0960 H   0  0  0  0  0  0  0  0  0  0  0  0
   30.8627   36.8511  -14.5635 H   0  0  0  0  0  0  0  0  0  0  0  0
   30.9363   36.4535  -16.1793 H   0  0  0  0  0  0  0  0  0  0  0  0
   31.9152   34.2961  -15.5948 H   0  0  0  0  0  0  0  0  0  0  0  0
   32.0052   34.6703  -13.9031 H   0  0  0  0  0  0  0  0  0  0  0  0
   34.3239   34.1909  -15.7517 H   0  0  0  0  0  0  0  0  0  0  0  0
   33.3221   32.6446  -13.4541 H   0  0  0  0  0  0  0  0  0  0  0  0
   34.6499   32.2422  -14.3757 H   0  0  0  0  0  0  0  0  0  0  0  0
   34.4851   34.6352  -12.7924 H   0  0  0  0  0  0  0  0  0  0  0  0
   35.4461   36.5472  -14.8273 H   0  0  0  0  0  0  0  0  0  0  0  0
   32.9791   36.7319  -13.1360 H   0  0  0  0  0  0  0  0  0  0  0  0
   34.0605   38.4858  -15.1075 H   0  0  0  0  0  0  0  0  0  0  0  0
   35.9137   38.5631  -13.8413 H   0  0  0  0  0  0  0  0  0  0  0  0
   36.8655   38.1471  -10.9408 H   0  0  0  0  0  0  0  0  0  0  0  0
   35.4983   40.2304  -12.2843 H   0  0  0  0  0  0  0  0  0  0  0  0
   38.4780   40.0391  -11.4693 H   0  0  0  0  0  0  0  0  0  0  0  0
   39.2823   38.9293  -13.8313 H   0  0  0  0  0  0  0  0  0  0  0  0
   39.1333   37.3076  -11.3114 H   0  0  0  0  0  0  0  0  0  0  0  0
   40.3515   38.5066  -11.6606 H   0  0  0  0  0  0  0  0  0  0  0  0
   39.8123   36.1759  -13.2216 H   0  0  0  0  0  0  0  0  0  0  0  0
   38.2384   42.0725  -11.8787 H   0  0  0  0  0  0  0  0  0  0  0  0
   36.7656   43.2033  -13.4182 H   0  0  0  0  0  0  0  0  0  0  0  0
   38.6767   42.3063  -15.4693 H   0  0  0  0  0  0  0  0  0  0  0  0
   37.3538   43.2788  -15.7495 H   0  0  0  0  0  0  0  0  0  0  0  0
   38.2982   44.9088  -14.3921 H   0  0  0  0  0  0  0  0  0  0  0  0
   38.7847   44.1675  -11.6745 H   0  0  0  0  0  0  0  0  0  0  0  0
   40.7152   44.7295  -13.6663 H   0  0  0  0  0  0  0  0  0  0  0  0
   39.7196   42.7368  -15.4471 H   0  0  0  0  0  0  0  0  0  0  0  0
   40.3580   43.0492  -11.9418 H   0  0  0  0  0  0  0  0  0  0  0  0
   42.2301   41.6063  -12.3829 H   0  0  0  0  0  0  0  0  0  0  0  0
   42.5866   43.2118  -12.9678 H   0  0  0  0  0  0  0  0  0  0  0  0
   41.6041   40.9819  -14.5941 H   0  0  0  0  0  0  0  0  0  0  0  0
   43.1706   41.5474  -14.5689 H   0  0  0  0  0  0  0  0  0  0  0  0
  1  2  1  0  0  0  0
  1  3  1  0  0  0  0
  1 10  1  0  0  0  0
  1 43  1  1  0  0  0
  2 18  1  0  0  0  0
  3  4  1  0  0  0  0
  3  5  1  0  0  0  0
  3 44  1  1  0  0  0
  4 45  1  0  0  0  0
  4 46  1  0  0  0  0
  5  6  1  0  0  0  0
  5  7  1  0  0  0  0
  5 47  1  6  0  0  0
  6 48  1  0  0  0  0
  7  8  1  0  0  0  0
  7  9  1  0  0  0  0
  7 49  1  1  0  0  0
  8 50  1  0  0  0  0
  9 10  1  0  0  0  0
  9 11  1  0  0  0  0
  9 51  1  6  0  0  0
 11 12  1  0  0  0  0
 11 52  1  0  0  0  0
 11 53  1  0  0  0  0
 12 54  1  0  0  0  0
 13 14  1  0  0  0  0
 13 15  1  0  0  0  0
 13 21  1  0  0  0  0
 13 55  1  6  0  0  0
 14 56  1  0  0  0  0
 14 57  1  0  0  0  0
 15 16  1  0  0  0  0
 15 58  1  0  0  0  0
 15 59  1  0  0  0  0
 16 17  1  0  0  0  0
 16 18  1  0  0  0  0
 16 60  1  6  0  0  0
 17 61  1  0  0  0  0
 17 62  1  0  0  0  0
 18 19  1  0  0  0  0
 18 63  1  1  0  0  0
 19 20  1  0  0  0  0
 19 21  1  0  0  0  0
 19 64  1  6  0  0  0
 20 23  1  0  0  0  0
 21 22  1  0  0  0  0
 21 65  1  1  0  0  0
 22 66  1  0  0  0  0
 23 24  1  0  0  0  0
 23 29  1  0  0  0  0
 23 67  1  6  0  0  0
 24 25  1  0  0  0  0
 24 26  1  0  0  0  0
 24 68  1  1  0  0  0
 25 69  1  0  0  0  0
 26 27  1  0  0  0  0
 26 28  1  0  0  0  0
 26 70  1  1  0  0  0
 27 32  1  0  0  0  0
 28 29  1  0  0  0  0
 28 30  1  0  0  0  0
 28 71  1  6  0  0  0
 30 31  1  0  0  0  0
 30 72  1  0  0  0  0
 30 73  1  0  0  0  0
 31 74  1  0  0  0  0
 32 33  1  0  0  0  0
 32 40  1  0  0  0  0
 32 75  1  1  0  0  0
 33 34  1  0  0  0  0
 33 35  1  0  0  0  0
 33 76  1  1  0  0  0
 34 77  1  0  0  0  0
 34 78  1  0  0  0  0
 35 36  1  0  0  0  0
 35 37  1  0  0  0  0
 35 79  1  6  0  0  0
 36 80  1  0  0  0  0
 37 38  1  0  0  0  0
 37 39  1  0  0  0  0
 37 81  1  1  0  0  0
 38 82  1  0  0  0  0
 39 40  1  0  0  0  0
 39 41  1  0  0  0  0
 39 83  1  1  0  0  0
 41 42  1  0  0  0  0
 41 84  1  0  0  0  0
 41 85  1  0  0  0  0
 42 86  1  0  0  0  0
 42 87  1  0  0  0  0
M  END
$$$$
