1UTS_P13_B_1046
 OpenBabel10091713573D
Coordinates from PDB:1UTS:B:1046 Model:1 without hydrogens
 63 66  0  0  0  0  0  0  0  0999 V2000
   -1.0850    5.1500   16.4350 C   0  0  0  0  0  0  0  0  0  0  0  0
   -1.0180    4.2460   15.3480 C   0  0  0  0  0  0  0  0  0  0  0  0
    0.1410    3.4460   15.1630 C   0  0  0  0  0  0  0  0  0  0  0  0
    1.2330    3.5480   16.0680 C   0  0  0  0  0  0  0  0  0  0  0  0
    1.1700    4.4720   17.1540 C   0  0  0  0  0  0  0  0  0  0  0  0
    0.0060    5.2680   17.3360 C   0  0  0  0  0  0  0  0  0  0  0  0
    5.2650    4.8110   21.0040 N   0  0  0  0  0  0  0  0  0  0  0  0
    4.2450    4.0950   20.2050 C   0  0  0  0  0  0  0  0  0  0  0  0
    2.8840    4.7660   20.3990 C   0  0  0  0  0  0  0  0  0  0  0  0
    1.8860    4.2030   19.3830 C   0  0  0  0  0  0  0  0  0  0  0  0
    2.2750    4.6040   18.0610 O   0  0  0  0  0  0  0  0  0  0  0  0
    2.4820    2.6710   15.8470 C   0  0  0  0  0  0  0  0  0  0  0  0
    3.1510    2.3920   17.1380 N   0  0  0  0  0  0  0  0  0  0  0  0
    4.1560    1.3110   16.9580 C   0  0  0  0  0  0  0  0  0  0  0  0
    3.4980   -0.0520   17.1920 C   0  0  0  0  0  0  0  0  0  0  0  0
    3.9280   -0.5880   18.5030 N   0  0  0  0  0  0  0  0  0  0  0  0
    5.3460   -1.0400   18.4090 C   0  0  0  0  0  0  0  0  0  0  0  0
    5.7950   -1.6010   19.7680 C   0  0  0  0  0  0  0  0  0  0  0  0
    4.9120   -2.7390   20.1510 N   0  0  0  0  0  0  0  0  0  0  0  0
    3.4950   -2.2900   20.2450 C   0  0  0  0  0  0  0  0  0  0  0  0
    3.0440   -1.7250   18.8860 C   0  0  0  0  0  0  0  0  0  0  0  0
   -5.5010    3.8380   11.9770 N   0  0  0  0  0  0  0  0  0  0  0  0
   -6.4110    3.3700   12.9520 C   0  0  0  0  0  0  0  0  0  0  0  0
   -5.7760    3.2220   14.2060 C   0  0  0  0  0  0  0  0  0  0  0  0
   -3.3600    3.6880   14.9200 C   0  0  0  0  0  0  0  0  0  0  0  0
   -2.0980    4.1520   14.4590 C   0  0  0  0  0  0  0  0  0  0  0  0
   -1.9350    4.5270   13.0970 C   0  0  0  0  0  0  0  0  0  0  0  0
   -3.0330    4.4400   12.1990 C   0  0  0  0  0  0  0  0  0  0  0  0
   -4.3050    3.9860   12.6690 C   0  0  0  0  0  0  0  0  0  0  0  0
   -4.4680    3.6140   14.0160 C   0  0  0  0  0  0  0  0  0  0  0  0
   -1.9303    5.7257   16.5733 H   0  0  0  0  0  0  0  0  0  0  0  0
    0.1907    2.7885   14.3691 H   0  0  0  0  0  0  0  0  0  0  0  0
   -0.0459    5.9324   18.1240 H   0  0  0  0  0  0  0  0  0  0  0  0
    6.1729    4.3643   20.8753 H   0  0  0  0  0  0  0  0  0  0  0  0
    5.0076    4.7799   21.9905 H   0  0  0  0  0  0  0  0  0  0  0  0
    4.1898    3.0762   20.5272 H   0  0  0  0  0  0  0  0  0  0  0  0
    4.5148    4.1270   19.1701 H   0  0  0  0  0  0  0  0  0  0  0  0
    2.9831    5.8215   20.2539 H   0  0  0  0  0  0  0  0  0  0  0  0
    2.5300    4.5731   21.3902 H   0  0  0  0  0  0  0  0  0  0  0  0
    0.9076    4.5797   19.5970 H   0  0  0  0  0  0  0  0  0  0  0  0
    1.8770    3.1348   19.4446 H   0  0  0  0  0  0  0  0  0  0  0  0
    3.1631    3.1838   15.2004 H   0  0  0  0  0  0  0  0  0  0  0  0
    2.1819    1.7444   15.4039 H   0  0  0  0  0  0  0  0  0  0  0  0
    2.4556    2.0977   17.8237 H   0  0  0  0  0  0  0  0  0  0  0  0
    4.9527    1.4461   17.6593 H   0  0  0  0  0  0  0  0  0  0  0  0
    4.5431    1.3504   15.9613 H   0  0  0  0  0  0  0  0  0  0  0  0
    3.7919   -0.7280   16.4164 H   0  0  0  0  0  0  0  0  0  0  0  0
    2.4338    0.0591   17.1834 H   0  0  0  0  0  0  0  0  0  0  0  0
    5.9678   -0.2111   18.1420 H   0  0  0  0  0  0  0  0  0  0  0  0
    5.4291   -1.8024   17.6629 H   0  0  0  0  0  0  0  0  0  0  0  0
    5.7296   -0.8331   20.5102 H   0  0  0  0  0  0  0  0  0  0  0  0
    6.8066   -1.9423   19.6967 H   0  0  0  0  0  0  0  0  0  0  0  0
    5.2091   -3.1048   21.0556 H   0  0  0  0  0  0  0  0  0  0  0  0
    3.4108   -1.5295   20.9930 H   0  0  0  0  0  0  0  0  0  0  0  0
    2.8746   -3.1208   20.5092 H   0  0  0  0  0  0  0  0  0  0  0  0
    3.1067   -2.4918   18.1424 H   0  0  0  0  0  0  0  0  0  0  0  0
    2.0332   -1.3819   18.9600 H   0  0  0  0  0  0  0  0  0  0  0  0
   -5.6748    4.0181   11.0248 H   0  0  0  0  0  0  0  0  0  0  0  0
   -7.4061    3.1639   12.7723 H   0  0  0  0  0  0  0  0  0  0  0  0
   -6.2038    2.8888   15.0840 H   0  0  0  0  0  0  0  0  0  0  0  0
   -3.4776    3.4047   15.9054 H   0  0  0  0  0  0  0  0  0  0  0  0
   -1.0189    4.8625   12.7605 H   0  0  0  0  0  0  0  0  0  0  0  0
   -2.9125    4.7042   11.2087 H   0  0  0  0  0  0  0  0  0  0  0  0
  1  2  2  0  0  0  0
  1  6  1  0  0  0  0
  1 31  1  0  0  0  0
  2  3  1  0  0  0  0
  2 26  1  0  0  0  0
  3  4  2  0  0  0  0
  3 32  1  0  0  0  0
  4  5  1  0  0  0  0
  4 12  1  0  0  0  0
  5  6  2  0  0  0  0
  5 11  1  0  0  0  0
  6 33  1  0  0  0  0
  7  8  1  0  0  0  0
  7 34  1  0  0  0  0
  7 35  1  0  0  0  0
  8  9  1  0  0  0  0
  8 36  1  0  0  0  0
  8 37  1  0  0  0  0
  9 10  1  0  0  0  0
  9 38  1  0  0  0  0
  9 39  1  0  0  0  0
 10 11  1  0  0  0  0
 10 40  1  0  0  0  0
 10 41  1  0  0  0  0
 12 13  1  0  0  0  0
 12 42  1  0  0  0  0
 12 43  1  0  0  0  0
 13 14  1  0  0  0  0
 13 44  1  0  0  0  0
 14 15  1  0  0  0  0
 14 45  1  0  0  0  0
 14 46  1  0  0  0  0
 15 16  1  0  0  0  0
 15 47  1  0  0  0  0
 15 48  1  0  0  0  0
 16 17  1  0  0  0  0
 16 21  1  0  0  0  0
 17 18  1  0  0  0  0
 17 49  1  0  0  0  0
 17 50  1  0  0  0  0
 18 19  1  0  0  0  0
 18 51  1  0  0  0  0
 18 52  1  0  0  0  0
 19 20  1  0  0  0  0
 19 53  1  0  0  0  0
 20 21  1  0  0  0  0
 20 54  1  0  0  0  0
 20 55  1  0  0  0  0
 21 56  1  0  0  0  0
 21 57  1  0  0  0  0
 22 23  1  0  0  0  0
 22 29  1  0  0  0  0
 22 58  1  0  0  0  0
 23 24  2  0  0  0  0
 23 59  1  0  0  0  0
 24 30  1  0  0  0  0
 24 60  1  0  0  0  0
 25 26  2  0  0  0  0
 25 30  1  0  0  0  0
 25 61  1  0  0  0  0
 26 27  1  0  0  0  0
 27 28  2  0  0  0  0
 27 62  1  0  0  0  0
 28 29  1  0  0  0  0
 28 63  1  0  0  0  0
 29 30  2  0  0  0  0
M  END
$$$$
