temp2.pdb
 OpenBabel10091713583D

 68 70  0  0  1  0  0  0  0  0999 V2000
    6.8560  -20.8120  -27.8980 C   0  0  2  0  0  0  0  0  0  0  0  0
    6.5250  -21.4450  -26.6420 O   0  0  0  0  0  0  0  0  0  0  0  0
    6.7790  -22.8430  -26.5570 C   0  0  0  0  0  0  0  0  0  0  0  0
    5.8300  -23.6410  -25.6110 C   0  0  0  0  0  0  0  0  0  0  0  0
    4.8130  -22.7630  -25.0320 N   0  0  0  0  0  0  0  0  0  0  0  0
    7.7710  -23.4360  -27.2570 C   0  0  0  0  0  0  0  0  0  0  0  0
    8.7050  -22.6110  -28.2170 C   0  0  0  0  0  0  0  0  0  0  0  0
    6.1470  -21.3730  -28.9930 O   0  0  0  0  0  0  0  0  0  0  0  0
    5.0160  -20.7810  -29.5100 C   0  0  1  0  0  0  0  0  0  0  0  0
    5.4100  -19.5750  -30.4590 C   0  0  2  0  0  0  0  0  0  0  0  0
    6.0890  -18.5510  -29.7180 O   0  0  0  0  0  0  0  0  0  0  0  0
    4.1250  -18.9600  -31.0680 C   0  0  1  0  0  0  0  0  0  0  0  0
    4.5170  -17.9060  -31.9090 O   0  0  0  0  0  0  0  0  0  0  0  0
    4.0100  -16.5510  -31.8040 C   0  0  1  0  0  0  0  0  0  0  0  0
    4.8930  -15.7160  -30.9320 O   0  0  0  0  0  0  0  0  0  0  0  0
    6.3420  -15.6370  -31.3520 C   0  0  0  0  0  0  0  0  0  0  0  0
    6.4450  -15.1370  -32.8380 C   0  0  1  0  0  0  0  0  0  0  0  0
    6.0370  -13.7770  -32.8830 O   0  0  0  0  0  0  0  0  0  0  0  0
    7.9500  -15.0970  -33.2000 C   0  0  0  0  0  0  0  0  0  0  0  0
    5.5180  -16.0760  -33.7750 C   0  0  2  0  0  0  0  0  0  0  0  0
    5.6200  -15.5870  -35.1770 N   0  0  0  0  0  0  0  0  0  0  0  0
    5.9930  -16.5840  -36.1910 C   0  0  0  0  0  0  0  0  0  0  0  0
    4.0170  -16.0020  -33.2610 C   0  0  1  0  0  0  0  0  0  0  0  0
    3.1640  -16.8110  -34.0540 O   0  0  0  0  0  0  0  0  0  0  0  0
    3.3710  -20.0500  -31.8900 C   0  0  2  0  0  0  0  0  0  0  0  0
    2.1890  -19.4780  -32.4660 N   0  0  0  0  0  0  0  0  0  0  0  0
    2.9500  -21.2560  -30.9610 C   0  0  0  0  0  0  0  0  0  0  0  0
    4.2540  -21.8870  -30.3340 C   0  0  2  0  0  0  0  0  0  0  0  0
    3.8890  -23.0160  -29.4540 N   0  0  0  0  0  0  0  0  0  0  0  0
    8.3640  -21.0560  -28.2260 C   0  0  1  0  0  0  0  0  0  0  0  0
    8.6540  -20.4310  -29.5220 N   0  0  0  0  0  0  0  0  0  0  0  0
    6.6084  -19.7776  -27.7811 H   0  0  0  0  0  0  0  0  0  0  0  0
    6.4068  -24.0771  -24.8223 H   0  0  0  0  0  0  0  0  0  0  0  0
    5.3404  -24.4031  -26.1805 H   0  0  0  0  0  0  0  0  0  0  0  0
    5.2669  -22.0309  -24.4857 H   0  0  0  0  0  0  0  0  0  0  0  0
    4.1985  -23.3074  -24.4267 H   0  0  0  0  0  0  0  0  0  0  0  0
    7.9192  -24.4527  -27.1597 H   0  0  0  0  0  0  0  0  0  0  0  0
    8.5940  -22.9908  -29.2111 H   0  0  0  0  0  0  0  0  0  0  0  0
    9.7080  -22.7181  -27.8600 H   0  0  0  0  0  0  0  0  0  0  0  0
    4.4004  -20.3919  -28.7261 H   0  0  0  0  0  0  0  0  0  0  0  0
    6.0541  -19.9471  -31.2282 H   0  0  0  0  0  0  0  0  0  0  0  0
    5.5042  -18.2145  -29.0211 H   0  0  0  0  0  0  0  0  0  0  0  0
    3.4714  -18.5990  -30.3016 H   0  0  0  0  0  0  0  0  0  0  0  0
    3.0346  -16.5269  -31.3648 H   0  0  0  0  0  0  0  0  0  0  0  0
    6.7871  -16.6068  -31.2729 H   0  0  0  0  0  0  0  0  0  0  0  0
    6.8554  -14.9486  -30.7137 H   0  0  0  0  0  0  0  0  0  0  0  0
    6.6141  -13.2472  -32.3110 H   0  0  0  0  0  0  0  0  0  0  0  0
    8.4634  -14.4499  -32.5198 H   0  0  0  0  0  0  0  0  0  0  0  0
    8.0671  -14.7303  -34.1984 H   0  0  0  0  0  0  0  0  0  0  0  0
    8.3595  -16.0832  -33.1319 H   0  0  0  0  0  0  0  0  0  0  0  0
    5.8419  -17.0949  -33.7330 H   0  0  0  0  0  0  0  0  0  0  0  0
    6.3211  -14.8464  -35.1972 H   0  0  0  0  0  0  0  0  0  0  0  0
    5.2738  -17.3762  -36.1937 H   0  0  0  0  0  0  0  0  0  0  0  0
    6.9600  -16.9809  -35.9622 H   0  0  0  0  0  0  0  0  0  0  0  0
    6.0167  -16.1205  -37.1551 H   0  0  0  0  0  0  0  0  0  0  0  0
    3.6643  -14.9933  -33.3161 H   0  0  0  0  0  0  0  0  0  0  0  0
    3.4665  -17.7319  -34.0181 H   0  0  0  0  0  0  0  0  0  0  0  0
    4.0243  -20.4095  -32.6574 H   0  0  0  0  0  0  0  0  0  0  0  0
    1.5776  -19.1405  -31.7226 H   0  0  0  0  0  0  0  0  0  0  0  0
    1.7001  -20.1867  -33.0129 H   0  0  0  0  0  0  0  0  0  0  0  0
    2.4346  -21.9940  -31.5395 H   0  0  0  0  0  0  0  0  0  0  0  0
    2.3010  -20.9099  -30.1839 H   0  0  0  0  0  0  0  0  0  0  0  0
    4.8906  -22.2513  -31.1130 H   0  0  0  0  0  0  0  0  0  0  0  0
    3.2813  -22.6815  -28.7062 H   0  0  0  0  0  0  0  0  0  0  0  0
    4.7343  -23.4195  -29.0504 H   0  0  0  0  0  0  0  0  0  0  0  0
    8.9856  -20.6126  -27.4764 H   0  0  0  0  0  0  0  0  0  0  0  0
    8.0641  -20.8499  -30.2410 H   0  0  0  0  0  0  0  0  0  0  0  0
    9.6351  -20.5785  -29.7586 H   0  0  0  0  0  0  0  0  0  0  0  0
  1 30  1  0  0  0  0
  1  8  1  0  0  0  0
  1  2  1  0  0  0  0
  1 32  1  1  0  0  0
  2  3  1  0  0  0  0
  3  6  2  0  0  0  0
  3  4  1  0  0  0  0
  4  5  1  0  0  0  0
  4 33  1  0  0  0  0
  4 34  1  0  0  0  0
  5 35  1  0  0  0  0
  5 36  1  0  0  0  0
  6  7  1  0  0  0  0
  6 37  1  0  0  0  0
  7 30  1  0  0  0  0
  7 38  1  0  0  0  0
  7 39  1  0  0  0  0
  9  8  1  0  0  0  0
  9 28  1  0  0  0  0
  9 10  1  0  0  0  0
  9 40  1  1  0  0  0
 10 12  1  0  0  0  0
 10 11  1  0  0  0  0
 10 41  1  6  0  0  0
 11 42  1  0  0  0  0
 12 25  1  0  0  0  0
 12 13  1  0  0  0  0
 12 43  1  1  0  0  0
 14 13  1  0  0  0  0
 14 23  1  0  0  0  0
 14 15  1  0  0  0  0
 14 44  1  1  0  0  0
 15 16  1  0  0  0  0
 16 17  1  0  0  0  0
 16 45  1  0  0  0  0
 16 46  1  0  0  0  0
 17 19  1  0  0  0  0
 17 18  1  6  0  0  0
 18 47  1  0  0  0  0
 19 48  1  0  0  0  0
 19 49  1  0  0  0  0
 19 50  1  0  0  0  0
 20 17  1  0  0  0  0
 20 23  1  0  0  0  0
 20 21  1  0  0  0  0
 20 51  1  1  0  0  0
 21 22  1  0  0  0  0
 21 52  1  0  0  0  0
 22 53  1  0  0  0  0
 22 54  1  0  0  0  0
 22 55  1  0  0  0  0
 23 24  1  0  0  0  0
 23 56  1  6  0  0  0
 24 57  1  0  0  0  0
 25 27  1  0  0  0  0
 25 26  1  0  0  0  0
 25 58  1  6  0  0  0
 26 59  1  0  0  0  0
 26 60  1  0  0  0  0
 27 28  1  0  0  0  0
 27 61  1  0  0  0  0
 27 62  1  0  0  0  0
 28 29  1  0  0  0  0
 28 63  1  6  0  0  0
 29 64  1  0  0  0  0
 29 65  1  0  0  0  0
 30 31  1  0  0  0  0
 30 66  1  1  0  0  0
 31 67  1  0  0  0  0
 31 68  1  0  0  0  0
M  END
$$$$
