1F27_BTN_A_33
 OpenBabel03221816523D

 32 33  0  0  1  0  0  0  0  0999 V2000
    0.9443   -0.1002    0.2793 C   0  0  0  0  0  0  0  0  0  0  0  0
    0.2444   -1.0038   -0.1474 O   0  0  0  0  0  0  0  0  0  0  0  0
    0.4312    0.9432    0.9727 O   0  0  0  0  0  0  0  0  0  0  0  0
    2.4440    0.0025    0.1170 C   0  0  0  0  0  0  0  0  0  0  0  0
    3.0132   -1.1812   -0.6615 C   0  0  0  0  0  0  0  0  0  0  0  0
    4.5334   -1.0800   -0.8217 C   0  0  0  0  0  0  0  0  0  0  0  0
    5.0689   -2.2741   -1.6260 C   0  0  0  0  0  0  0  0  0  0  0  0
    6.6007   -2.3014   -1.8001 C   0  0  2  0  0  0  0  0  0  0  0  0
    7.0561   -2.2456   -0.8039 H   0  0  0  0  0  0  0  0  0  0  0  0
    7.1832   -0.8572   -2.7581 S   0  0  0  0  0  0  0  0  0  0  0  0
    7.6787   -1.7778   -4.2365 C   0  0  0  0  0  0  0  0  0  0  0  0
    7.3058   -3.2294   -4.0239 C   0  0  2  0  0  0  0  0  0  0  0  0
    8.0487   -3.8822   -4.5008 H   0  0  0  0  0  0  0  0  0  0  0  0
    6.0293   -3.6655   -4.5402 N   0  0  0  0  0  0  0  0  0  0  0  0
    5.5343   -4.6764   -3.7259 C   0  0  0  0  0  0  0  0  0  0  0  0
    4.6102   -5.4203   -3.9860 O   0  0  0  0  0  0  0  0  0  0  0  0
    6.2897   -4.6825   -2.5604 N   0  0  0  0  0  0  0  0  0  0  0  0
    7.1789   -3.5421   -2.5296 C   0  0  2  0  0  0  0  0  0  0  0  0
    8.1412   -3.8373   -2.0971 H   0  0  0  0  0  0  0  0  0  0  0  0
    1.1022    1.5935    1.2531 H   0  0  0  0  0  0  0  0  0  0  0  0
    2.8944    0.0383    1.1151 H   0  0  0  0  0  0  0  0  0  0  0  0
    2.6680    0.9350   -0.4123 H   0  0  0  0  0  0  0  0  0  0  0  0
    2.5426   -1.2275   -1.6525 H   0  0  0  0  0  0  0  0  0  0  0  0
    2.7575   -2.1172   -0.1496 H   0  0  0  0  0  0  0  0  0  0  0  0
    5.0090   -1.0568    0.1668 H   0  0  0  0  0  0  0  0  0  0  0  0
    4.7748   -0.1373   -1.3233 H   0  0  0  0  0  0  0  0  0  0  0  0
    4.5684   -2.2913   -2.6019 H   0  0  0  0  0  0  0  0  0  0  0  0
    4.7638   -3.1849   -1.0955 H   0  0  0  0  0  0  0  0  0  0  0  0
    8.7659   -1.6796   -4.3231 H   0  0  0  0  0  0  0  0  0  0  0  0
    7.2231   -1.3511   -5.1345 H   0  0  0  0  0  0  0  0  0  0  0  0
    5.7480   -3.6618   -5.5127 H   0  0  0  0  0  0  0  0  0  0  0  0
    6.0156   -5.2656   -1.7798 H   0  0  0  0  0  0  0  0  0  0  0  0
  1  2  2  0  0  0  0
  1  3  1  0  0  0  0
  1  4  1  0  0  0  0
  3 20  1  0  0  0  0
  4  5  1  0  0  0  0
  4 21  1  0  0  0  0
  4 22  1  0  0  0  0
  5  6  1  0  0  0  0
  5 23  1  0  0  0  0
  5 24  1  0  0  0  0
  6  7  1  0  0  0  0
  6 25  1  0  0  0  0
  6 26  1  0  0  0  0
  7  8  1  0  0  0  0
  7 27  1  0  0  0  0
  7 28  1  0  0  0  0
  8  9  1  0  0  0  0
  8 10  1  0  0  0  0
  8 18  1  6  0  0  0
 10 11  1  0  0  0  0
 11 12  1  0  0  0  0
 11 29  1  0  0  0  0
 11 30  1  0  0  0  0
 12 13  1  0  0  0  0
 12 14  1  0  0  0  0
 12 18  1  1  0  0  0
 14 15  1  0  0  0  0
 14 31  1  0  0  0  0
 15 16  2  0  0  0  0
 15 17  1  0  0  0  0
 17 18  1  0  0  0  0
 17 32  1  0  0  0  0
 18 19  1  1  0  0  0
M  END
$$$$
