ligand.pdb
 OpenBabel03221817303D

 39 41  0  0  1  0  0  0  0  0999 V2000
    2.0112    1.7945    0.7141 N   0  0  0  0  0  0  0  0  0  0  0  0
    1.7101    0.5150    0.7287 C   0  0  0  0  0  0  0  0  0  0  0  0
    1.7658   -0.0405    1.9757 N   0  0  0  0  0  0  0  0  0  0  0  0
    1.9901    0.7502    3.0983 C   0  0  0  0  0  0  0  0  0  0  0  0
    1.5715    0.4227    4.2073 O   0  0  0  0  0  0  0  0  0  0  0  0
    2.9070    2.0013    2.8624 C   0  0  1  0  0  0  0  0  0  0  0  0
    2.7060    2.7664    3.6167 H   0  0  0  0  0  0  0  0  0  0  0  0
    4.3062    1.5496    2.9808 N   0  0  0  0  0  0  0  0  0  0  0  0
    5.2413    1.6981    1.8222 C   0  0  2  0  0  0  0  0  0  0  0  0
    6.2670    1.6122    2.2019 H   0  0  0  0  0  0  0  0  0  0  0  0
    5.1011    3.1271    1.2330 C   0  0  0  0  0  0  0  0  0  0  0  0
    3.7000    3.4176    0.8721 N   0  0  0  0  0  0  0  0  0  0  0  0
    2.7634    2.5838    1.4501 C   0  0  0  0  0  0  0  0  0  0  0  0
    5.0408    0.5766    0.7575 C   0  0  0  0  0  0  0  0  0  0  0  0
    6.0042    0.5917   -0.3560 N   0  0  0  0  0  0  0  0  0  0  0  0
    7.0226   -0.3756   -0.2815 C   0  0  0  0  0  0  0  0  0  0  0  0
    7.4227   -1.0444   -1.4463 C   0  0  0  0  0  0  0  0  0  0  0  0
    8.4696   -1.9671   -1.4205 C   0  0  0  0  0  0  0  0  0  0  0  0
    9.1541   -2.2076   -0.2325 C   0  0  0  0  0  0  0  0  0  0  0  0
    8.7875   -1.5295    0.9254 C   0  0  0  0  0  0  0  0  0  0  0  0
    7.7333   -0.6195    0.8982 C   0  0  0  0  0  0  0  0  0  0  0  0
    4.7891    1.1121    4.1998 C   0  0  0  0  0  0  0  0  0  0  0  0
    5.9386    0.7342    4.4127 O   0  0  0  0  0  0  0  0  0  0  0  0
    1.5580   -0.2275   -0.3849 N   0  0  0  0  0  0  0  0  0  0  0  0
    1.4313   -0.9778    2.1432 H   0  0  0  0  0  0  0  0  0  0  0  0
    5.7532    3.2623    0.3695 H   0  0  0  0  0  0  0  0  0  0  0  0
    5.4113    3.8457    2.0037 H   0  0  0  0  0  0  0  0  0  0  0  0
    3.6057    3.5451   -0.1376 H   0  0  0  0  0  0  0  0  0  0  0  0
    4.9633   -0.4130    1.2250 H   0  0  0  0  0  0  0  0  0  0  0  0
    4.0921    0.7125    0.2528 H   0  0  0  0  0  0  0  0  0  0  0  0
    5.5083    0.4774   -1.2412 H   0  0  0  0  0  0  0  0  0  0  0  0
    6.9075   -0.8678   -2.3894 H   0  0  0  0  0  0  0  0  0  0  0  0
    8.7537   -2.4933   -2.3278 H   0  0  0  0  0  0  0  0  0  0  0  0
    9.9760   -2.9159   -0.2081 H   0  0  0  0  0  0  0  0  0  0  0  0
    9.3231   -1.6981    1.8555 H   0  0  0  0  0  0  0  0  0  0  0  0
    7.4869   -0.1031    1.8198 H   0  0  0  0  0  0  0  0  0  0  0  0
    4.0223    1.0929    4.9860 H   0  0  0  0  0  0  0  0  0  0  0  0
    1.5433    0.1922   -1.3098 H   0  0  0  0  0  0  0  0  0  0  0  0
    1.6196   -1.2421   -0.3596 H   0  0  0  0  0  0  0  0  0  0  0  0
  1  2  2  0  0  0  0
  1 13  2  0  0  0  0
  2  3  1  0  0  0  0
  2 24  1  0  0  0  0
  3  4  1  0  0  0  0
  3 25  1  0  0  0  0
  4  5  2  0  0  0  0
  4  6  1  0  0  0  0
  6  7  1  1  0  0  0
  6  8  1  0  0  0  0
  6 13  1  0  0  0  0
  8  9  1  0  0  0  0
  8 22  1  0  0  0  0
  9 11  1  0  0  0  0
  9 14  1  0  0  0  0
  9 10  1  1  0  0  0
 11 12  1  0  0  0  0
 11 26  1  0  0  0  0
 11 27  1  0  0  0  0
 12 13  1  0  0  0  0
 12 28  1  0  0  0  0
 14 15  1  0  0  0  0
 14 29  1  0  0  0  0
 14 30  1  0  0  0  0
 15 16  1  0  0  0  0
 15 31  1  0  0  0  0
 16 17  2  0  0  0  0
 16 21  1  0  0  0  0
 17 18  1  0  0  0  0
 17 32  1  0  0  0  0
 18 19  2  0  0  0  0
 18 33  1  0  0  0  0
 19 20  1  0  0  0  0
 19 34  1  0  0  0  0
 20 21  2  0  0  0  0
 20 35  1  0  0  0  0
 21 36  1  0  0  0  0
 22 23  2  0  0  0  0
 22 37  1  0  0  0  0
 24 38  1  0  0  0  0
 24 39  1  0  0  0  0
M  END
$$$$
