4K32_GET_A_101
 OpenBabel03221817313D

 74 76  0  0  1  0  0  0  0  0999 V2000
   -1.3219    5.2732    1.9789 C   0  0  2  0  0  0  0  0  0  0  0  0
   -1.7478    4.9283    2.9300 H   0  0  0  0  0  0  0  0  0  0  0  0
   -2.2921    4.8428    1.0135 O   0  0  0  0  0  0  0  0  0  0  0  0
   -2.0910    5.1678   -0.3826 C   0  0  2  0  0  0  0  0  0  0  0  0
   -2.2051    6.2473   -0.5132 H   0  0  0  0  0  0  0  0  0  0  0  0
   -3.2701    4.4812   -1.1235 C   0  0  2  0  0  0  0  0  0  0  0  0
   -3.2821    3.4159   -0.8480 H   0  0  0  0  0  0  0  0  0  0  0  0
   -3.1733    4.6079   -2.6391 C   0  0  0  0  0  0  0  0  0  0  0  0
   -1.8658    4.0028   -3.1550 C   0  0  1  0  0  0  0  0  0  0  0  0
   -1.7996    2.9464   -2.8743 H   0  0  0  0  0  0  0  0  0  0  0  0
   -1.8854    4.0598   -4.6251 N   0  0  0  0  0  0  0  0  0  0  0  0
   -0.6771    4.7654   -2.5207 C   0  0  1  0  0  0  0  0  0  0  0  0
   -0.7057    5.8220   -2.8259 H   0  0  0  0  0  0  0  0  0  0  0  0
   -0.7338    4.7086   -0.9778 C   0  0  1  0  0  0  0  0  0  0  0  0
   -0.5166    3.6863   -0.6377 H   0  0  0  0  0  0  0  0  0  0  0  0
    0.3546    5.5277   -0.4997 O   0  0  0  0  0  0  0  0  0  0  0  0
    0.6260    4.2450   -2.8332 O   0  0  0  0  0  0  0  0  0  0  0  0
    1.0220    4.3370   -4.1915 C   0  0  2  0  0  0  0  0  0  0  0  0
    0.4113    3.6558   -4.7873 H   0  0  0  0  0  0  0  0  0  0  0  0
    2.4845    3.8542   -4.2633 C   0  0  2  0  0  0  0  0  0  0  0  0
    2.5731    2.8635   -3.8082 H   0  0  0  0  0  0  0  0  0  0  0  0
    3.3509    4.6871   -3.4713 O   0  0  0  0  0  0  0  0  0  0  0  0
    2.9413    3.8536   -5.7378 C   0  0  1  0  0  0  0  0  0  0  0  0
    4.0190    3.6518   -5.7841 H   0  0  0  0  0  0  0  0  0  0  0  0
    2.2831    2.8192   -6.5914 N   0  0  0  0  0  0  0  0  0  0  0  0
    2.3911    1.4572   -6.0871 C   0  0  0  0  0  0  0  0  0  0  0  0
    2.6930    5.2791   -6.3629 C   0  0  2  0  0  0  0  0  0  0  0  0
    2.8709    5.2316   -7.7913 O   0  0  0  0  0  0  0  0  0  0  0  0
    3.6885    6.3304   -5.8521 C   0  0  0  0  0  0  0  0  0  0  0  0
    1.2524    5.7485   -6.0684 C   0  0  0  0  0  0  0  0  0  0  0  0
    0.9236    5.6768   -4.6769 O   0  0  0  0  0  0  0  0  0  0  0  0
   -4.5616    5.0473   -0.6935 N   0  0  0  0  0  0  0  0  0  0  0  0
   -1.1686    6.8305    2.1189 C   0  0  2  0  0  0  0  0  0  0  0  0
   -2.1425    7.2192    2.4397 H   0  0  0  0  0  0  0  0  0  0  0  0
   -0.8238    7.5723    0.8861 N   0  0  0  0  0  0  0  0  0  0  0  0
   -0.1076    7.0989    3.2068 C   0  0  1  0  0  0  0  0  0  0  0  0
    0.0810    8.1783    3.2565 H   0  0  0  0  0  0  0  0  0  0  0  0
   -0.6244    6.7275    4.4869 O   0  0  0  0  0  0  0  0  0  0  0  0
    1.2089    6.3681    2.8888 C   0  0  2  0  0  0  0  0  0  0  0  0
    1.9173    6.5123    3.7095 H   0  0  0  0  0  0  0  0  0  0  0  0
    1.8320    6.9521    1.7309 O   0  0  0  0  0  0  0  0  0  0  0  0
    0.9907    4.8537    2.6518 C   0  0  2  0  0  0  0  0  0  0  0  0
    1.8668    4.5011    2.0875 H   0  0  0  0  0  0  0  0  0  0  0  0
   -0.1203    4.5314    1.8189 O   0  0  0  0  0  0  0  0  0  0  0  0
    0.9644    4.0430    3.9714 C   0  0  2  0  0  0  0  0  0  0  0  0
    0.1687    4.3997    4.6245 H   0  0  0  0  0  0  0  0  0  0  0  0
    2.2072    4.2230    4.6684 O   0  0  0  0  0  0  0  0  0  0  0  0
    0.7527    2.5502    3.7547 C   0  0  0  0  0  0  0  0  0  0  0  0
   -3.2336    5.6679   -2.9309 H   0  0  0  0  0  0  0  0  0  0  0  0
   -4.0293    4.1049   -3.1086 H   0  0  0  0  0  0  0  0  0  0  0  0
   -1.8463    5.0304   -4.9350 H   0  0  0  0  0  0  0  0  0  0  0  0
   -2.7676    3.6896   -4.9751 H   0  0  0  0  0  0  0  0  0  0  0  0
    0.6248    6.1287   -1.2127 H   0  0  0  0  0  0  0  0  0  0  0  0
    2.7966    5.0176   -2.7364 H   0  0  0  0  0  0  0  0  0  0  0  0
    1.2981    3.0453   -6.7415 H   0  0  0  0  0  0  0  0  0  0  0  0
    3.4366    1.1468   -6.0100 H   0  0  0  0  0  0  0  0  0  0  0  0
    1.8932    0.7754   -6.7847 H   0  0  0  0  0  0  0  0  0  0  0  0
    1.8979    1.3229   -5.1198 H   0  0  0  0  0  0  0  0  0  0  0  0
    3.4861    4.4952   -7.9668 H   0  0  0  0  0  0  0  0  0  0  0  0
    4.7108    5.9357   -5.8558 H   0  0  0  0  0  0  0  0  0  0  0  0
    3.4562    6.6830   -4.8435 H   0  0  0  0  0  0  0  0  0  0  0  0
    3.6939    7.2079   -6.5101 H   0  0  0  0  0  0  0  0  0  0  0  0
    0.5173    5.1703   -6.6432 H   0  0  0  0  0  0  0  0  0  0  0  0
    1.1179    6.7883   -6.3905 H   0  0  0  0  0  0  0  0  0  0  0  0
   -4.5639    5.0530    0.3292 H   0  0  0  0  0  0  0  0  0  0  0  0
   -5.3215    4.4338   -0.9803 H   0  0  0  0  0  0  0  0  0  0  0  0
    0.0457    7.1387    0.5362 H   0  0  0  0  0  0  0  0  0  0  0  0
   -0.6110    8.5509    1.0977 H   0  0  0  0  0  0  0  0  0  0  0  0
    0.0967    6.7988    5.1394 H   0  0  0  0  0  0  0  0  0  0  0  0
    1.9413    7.9032    1.8895 H   0  0  0  0  0  0  0  0  0  0  0  0
    2.9001    3.7825    4.1482 H   0  0  0  0  0  0  0  0  0  0  0  0
    1.5373    2.1252    3.1196 H   0  0  0  0  0  0  0  0  0  0  0  0
   -0.2210    2.3426    3.3004 H   0  0  0  0  0  0  0  0  0  0  0  0
    0.8057    2.0228    4.7135 H   0  0  0  0  0  0  0  0  0  0  0  0
  1 44  1  0  0  0  0
  1  3  1  0  0  0  0
  1  2  1  1  0  0  0
  4  6  1  6  0  0  0
  4  5  1  0  0  0  0
  4  3  1  0  0  0  0
  6  7  1  1  0  0  0
  6  8  1  0  0  0  0
  6 32  1  0  0  0  0
  8  9  1  0  0  0  0
  8 49  1  0  0  0  0
  8 50  1  0  0  0  0
  9 12  1  1  0  0  0
  9 11  1  0  0  0  0
  9 10  1  0  0  0  0
 11 51  1  0  0  0  0
 11 52  1  0  0  0  0
 12 13  1  0  0  0  0
 12 14  1  1  0  0  0
 12 17  1  0  0  0  0
 14  4  1  1  0  0  0
 14 16  1  0  0  0  0
 14 15  1  0  0  0  0
 16 53  1  0  0  0  0
 18 20  1  6  0  0  0
 18 31  1  0  0  0  0
 18 19  1  0  0  0  0
 18 17  1  0  0  0  0
 20 23  1  6  0  0  0
 20 22  1  0  0  0  0
 20 21  1  0  0  0  0
 22 54  1  0  0  0  0
 23 27  1  6  0  0  0
 23 25  1  0  0  0  0
 23 24  1  0  0  0  0
 25 26  1  0  0  0  0
 25 55  1  0  0  0  0
 26 56  1  0  0  0  0
 26 57  1  0  0  0  0
 26 58  1  0  0  0  0
 27 28  1  6  0  0  0
 27 29  1  0  0  0  0
 27 30  1  0  0  0  0
 28 59  1  0  0  0  0
 29 60  1  0  0  0  0
 29 61  1  0  0  0  0
 29 62  1  0  0  0  0
 30 31  1  0  0  0  0
 30 63  1  0  0  0  0
 30 64  1  0  0  0  0
 32 65  1  0  0  0  0
 32 66  1  0  0  0  0
 33  1  1  6  0  0  0
 33 35  1  0  0  0  0
 33 34  1  0  0  0  0
 35 67  1  0  0  0  0
 35 68  1  0  0  0  0
 36 33  1  6  0  0  0
 36 38  1  0  0  0  0
 36 37  1  0  0  0  0
 38 69  1  0  0  0  0
 39 36  1  1  0  0  0
 39 40  1  0  0  0  0
 39 41  1  0  0  0  0
 41 70  1  0  0  0  0
 42 39  1  1  0  0  0
 42 44  1  0  0  0  0
 42 45  1  0  0  0  0
 42 43  1  0  0  0  0
 45 48  1  0  0  0  0
 45 47  1  0  0  0  0
 45 46  1  1  0  0  0
 47 71  1  0  0  0  0
 48 72  1  0  0  0  0
 48 73  1  0  0  0  0
 48 74  1  0  0  0  0
M  END
$$$$
