ligand.pdb
 OpenBabel03221817303D

 51 53  0  0  1  0  0  0  0  0999 V2000
   13.2788    5.5944    1.7176 N   0  0  0  0  0  0  0  0  0  0  0  0
   12.4019    4.4354    1.9821 C   0  0  2  0  0  0  0  0  0  0  0  0
   11.4059    4.8247    2.2152 H   0  0  0  0  0  0  0  0  0  0  0  0
   12.9376    3.6666    3.2025 C   0  0  0  0  0  0  0  0  0  0  0  0
   13.7755    2.7796    3.1594 O   0  0  0  0  0  0  0  0  0  0  0  0
   12.4487    4.1436    4.3754 O   0  0  0  0  0  0  0  0  0  0  0  0
   12.3177    3.5448    0.7349 C   0  0  0  0  0  0  0  0  0  0  0  0
   11.3686    2.3588    0.8753 C   0  0  0  0  0  0  0  0  0  0  0  0
    9.7241    2.8126    1.3522 S   0  0  2  0  0  0  0  0  0  0  0  0
    9.6765    3.3699    2.5753 H   0  0  0  0  0  0  0  0  0  0  0  0
    8.7742    1.3210    1.3334 C   0  0  0  0  0  0  0  0  0  0  0  0
    9.0634    3.9334    0.1412 C   0  0  0  0  0  0  0  0  0  0  0  0
    7.6255    4.3760    0.4162 C   0  0  2  0  0  0  0  0  0  0  0  0
    6.9735    3.4976    0.3534 H   0  0  0  0  0  0  0  0  0  0  0  0
    7.2121    5.2974   -0.6191 O   0  0  0  0  0  0  0  0  0  0  0  0
    7.4016    6.6600   -0.1444 C   0  0  1  0  0  0  0  0  0  0  0  0
    6.4696    7.2046   -0.3384 H   0  0  0  0  0  0  0  0  0  0  0  0
    7.6792    6.5759    1.3642 C   0  0  2  0  0  0  0  0  0  0  0  0
    8.7166    6.8034    1.6276 H   0  0  0  0  0  0  0  0  0  0  0  0
    7.3469    5.1332    1.7101 C   0  0  2  0  0  0  0  0  0  0  0  0
    6.2779    5.0409    1.9411 H   0  0  0  0  0  0  0  0  0  0  0  0
    8.0495    4.6979    2.8607 O   0  0  0  0  0  0  0  0  0  0  0  0
    6.8475    7.4386    2.1558 O   0  0  0  0  0  0  0  0  0  0  0  0
    8.3959    7.3055   -0.9890 N   0  0  0  0  0  0  0  0  0  0  0  0
    8.5537    7.0408   -2.3309 C   0  0  0  0  0  0  0  0  0  0  0  0
    9.3217    7.9234   -2.9304 N   0  0  0  0  0  0  0  0  0  0  0  0
    9.7020    8.7908   -1.9311 C   0  0  0  0  0  0  0  0  0  0  0  0
   10.4729    9.9671   -1.9512 C   0  0  0  0  0  0  0  0  0  0  0  0
   10.9998   10.5112   -3.1201 N   0  0  0  0  0  0  0  0  0  0  0  0
   10.6658   10.6301   -0.7907 N   0  0  0  0  0  0  0  0  0  0  0  0
   10.1106   10.1254    0.3323 C   0  0  0  0  0  0  0  0  0  0  0  0
    9.3228    9.0365    0.4665 N   0  0  0  0  0  0  0  0  0  0  0  0
    9.1570    8.4112   -0.7114 C   0  0  0  0  0  0  0  0  0  0  0  0
   14.2061    5.2452    1.4603 H   0  0  0  0  0  0  0  0  0  0  0  0
   13.4222    6.1313    2.5712 H   0  0  0  0  0  0  0  0  0  0  0  0
   11.7941    4.8557    4.2546 H   0  0  0  0  0  0  0  0  0  0  0  0
   13.3125    3.1528    0.4845 H   0  0  0  0  0  0  0  0  0  0  0  0
   12.0024    4.1526   -0.1225 H   0  0  0  0  0  0  0  0  0  0  0  0
   11.7253    1.6575    1.6359 H   0  0  0  0  0  0  0  0  0  0  0  0
   11.2948    1.8166   -0.0727 H   0  0  0  0  0  0  0  0  0  0  0  0
    7.7864    1.5353    1.7439 H   0  0  0  0  0  0  0  0  0  0  0  0
    9.2848    0.5932    1.9673 H   0  0  0  0  0  0  0  0  0  0  0  0
    8.7003    0.9503    0.3105 H   0  0  0  0  0  0  0  0  0  0  0  0
    9.1250    3.4395   -0.8349 H   0  0  0  0  0  0  0  0  0  0  0  0
    9.7306    4.7990    0.0993 H   0  0  0  0  0  0  0  0  0  0  0  0
    7.8436    5.3330    3.5728 H   0  0  0  0  0  0  0  0  0  0  0  0
    5.9098    7.2452    1.9623 H   0  0  0  0  0  0  0  0  0  0  0  0
    8.0586    6.2095   -2.8187 H   0  0  0  0  0  0  0  0  0  0  0  0
   10.5146   10.1898   -3.9511 H   0  0  0  0  0  0  0  0  0  0  0  0
   11.1478   11.5076   -3.0286 H   0  0  0  0  0  0  0  0  0  0  0  0
   10.3207   10.6760    1.2457 H   0  0  0  0  0  0  0  0  0  0  0  0
  1 34  1  0  0  0  0
  1 35  1  0  0  0  0
  2  4  1  0  0  0  0
  2  7  1  0  0  0  0
  2  3  1  1  0  0  0
  2  1  1  0  0  0  0
  4  5  2  0  0  0  0
  4  6  1  0  0  0  0
  6 36  1  0  0  0  0
  7  8  1  0  0  0  0
  7 37  1  0  0  0  0
  7 38  1  0  0  0  0
  8 39  1  0  0  0  0
  8 40  1  0  0  0  0
  9 11  1  0  0  0  0
  9 12  1  0  0  0  0
  9 10  1  1  0  0  0
  9  8  1  0  0  0  0
 11 41  1  0  0  0  0
 11 42  1  0  0  0  0
 11 43  1  0  0  0  0
 12 44  1  0  0  0  0
 12 45  1  0  0  0  0
 13 15  1  0  0  0  0
 13 20  1  1  0  0  0
 13 14  1  0  0  0  0
 13 12  1  0  0  0  0
 15 16  1  0  0  0  0
 16 17  1  0  0  0  0
 16 18  1  1  0  0  0
 16 24  1  0  0  0  0
 18 20  1  1  0  0  0
 18 23  1  0  0  0  0
 18 19  1  0  0  0  0
 20 21  1  1  0  0  0
 20 22  1  0  0  0  0
 22 46  1  0  0  0  0
 23 47  1  0  0  0  0
 24 25  1  0  0  0  0
 24 33  1  0  0  0  0
 25 26  2  0  0  0  0
 25 48  1  0  0  0  0
 26 27  1  0  0  0  0
 27 28  2  0  0  0  0
 27 33  1  0  0  0  0
 28 29  1  0  0  0  0
 28 30  1  0  0  0  0
 29 49  1  0  0  0  0
 29 50  1  0  0  0  0
 30 31  2  0  0  0  0
 31 32  1  0  0  0  0
 31 51  1  0  0  0  0
 32 33  2  0  0  0  0
M  END
$$$$
