2M4Q_AM2_1_101
 OpenBabel03221817253D

 78 81  0  0  1  0  0  0  0  0999 V2000
    1.2683    4.0781   -2.3836 C   0  0  2  0  0  0  0  0  0  0  0  0
    0.9006    4.9500   -2.9302 H   0  0  0  0  0  0  0  0  0  0  0  0
    0.5173    2.8288   -2.9553 C   0  0  1  0  0  0  0  0  0  0  0  0
    0.7953    2.7546   -4.0129 H   0  0  0  0  0  0  0  0  0  0  0  0
    1.0340    1.5683   -2.2453 C   0  0  0  0  0  0  0  0  0  0  0  0
    2.5226    1.4641   -2.5403 C   0  0  1  0  0  0  0  0  0  0  0  0
    2.5971    1.2405   -3.6142 H   0  0  0  0  0  0  0  0  0  0  0  0
    3.2664    2.7582   -2.1821 C   0  0  1  0  0  0  0  0  0  0  0  0
    3.3811    2.8487   -1.0946 H   0  0  0  0  0  0  0  0  0  0  0  0
    4.6539    2.6336   -2.8277 C   0  0  1  0  0  0  0  0  0  0  0  0
    5.2664    3.5089   -2.5816 H   0  0  0  0  0  0  0  0  0  0  0  0
    5.3694    1.3347   -2.3565 C   0  0  1  0  0  0  0  0  0  0  0  0
    5.5918    1.5162   -1.2946 H   0  0  0  0  0  0  0  0  0  0  0  0
    4.4211    0.0734   -2.3361 C   0  0  2  0  0  0  0  0  0  0  0  0
    4.3058   -0.3367   -3.3466 H   0  0  0  0  0  0  0  0  0  0  0  0
    3.1243    0.4023   -1.8074 O   0  0  0  0  0  0  0  0  0  0  0  0
    5.0423   -0.9249   -1.4992 O   0  0  0  0  0  0  0  0  0  0  0  0
    4.1959   -2.0614   -1.2872 C   0  0  2  0  0  0  0  0  0  0  0  0
    3.2242   -1.7235   -0.9151 H   0  0  0  0  0  0  0  0  0  0  0  0
    4.8369   -2.9659   -0.1994 C   0  0  1  0  0  0  0  0  0  0  0  0
    4.8865   -2.4109    0.7448 H   0  0  0  0  0  0  0  0  0  0  0  0
    4.0081   -4.2504   -0.0216 C   0  0  2  0  0  0  0  0  0  0  0  0
    4.5422   -4.9515    0.6322 H   0  0  0  0  0  0  0  0  0  0  0  0
    3.7314   -4.9450   -1.3834 C   0  0  1  0  0  0  0  0  0  0  0  0
    2.9956   -5.7441   -1.2357 H   0  0  0  0  0  0  0  0  0  0  0  0
    3.1628   -3.9215   -2.4012 C   0  0  1  0  0  0  0  0  0  0  0  0
    3.1708   -4.3738   -3.4012 H   0  0  0  0  0  0  0  0  0  0  0  0
    1.6956   -3.5230   -2.1212 C   0  0  0  0  0  0  0  0  0  0  0  0
    1.2165   -2.5993   -3.1010 O   0  0  0  0  0  0  0  0  0  0  0  0
    4.0548   -2.7902   -2.5074 O   0  0  0  0  0  0  0  0  0  0  0  0
    4.9438   -5.5801   -1.9541 N   0  0  0  0  0  0  0  0  0  0  0  0
    2.7576   -3.9731    0.6193 O   0  0  0  0  0  0  0  0  0  0  0  0
    6.1880   -3.3317   -0.5289 O   0  0  0  0  0  0  0  0  0  0  0  0
    6.7168    1.0995   -2.9512 N   0  0  0  0  0  0  0  0  0  0  0  0
    6.7664    1.1147   -4.4090 C   0  0  0  0  0  0  0  0  0  0  0  0
    4.4442    2.6723   -4.2539 O   0  0  0  0  0  0  0  0  0  0  0  0
    2.6601    3.9560   -2.6862 O   0  0  0  0  0  0  0  0  0  0  0  0
   -0.9516    2.9004   -2.9186 N   0  0  0  0  0  0  0  0  0  0  0  0
    1.0032    4.2699   -0.9821 O   0  0  0  0  0  0  0  0  0  0  0  0
    1.7009    5.3758   -0.3657 C   0  0  1  0  0  0  0  0  0  0  0  0
    2.7728    5.2727   -0.5738 H   0  0  0  0  0  0  0  0  0  0  0  0
    1.2243    6.7627   -0.8495 C   0  0  1  0  0  0  0  0  0  0  0  0
    1.2975    6.8070   -1.9432 H   0  0  0  0  0  0  0  0  0  0  0  0
   -0.2383    7.0434   -0.4621 C   0  0  2  0  0  0  0  0  0  0  0  0
   -0.4745    8.0763   -0.7460 H   0  0  0  0  0  0  0  0  0  0  0  0
   -0.5277    6.8854    1.0545 C   0  0  1  0  0  0  0  0  0  0  0  0
   -1.6131    6.7710    1.1704 H   0  0  0  0  0  0  0  0  0  0  0  0
    0.1048    5.6165    1.6546 C   0  0  0  0  0  0  0  0  0  0  0  0
    1.5333    5.2795    1.1777 C   0  0  2  0  0  0  0  0  0  0  0  0
    1.7171    4.2265    1.4679 H   0  0  0  0  0  0  0  0  0  0  0  0
    2.5401    6.0859    1.9023 N   0  0  0  0  0  0  0  0  0  0  0  0
   -0.1909    8.0844    1.8495 N   0  0  0  0  0  0  0  0  0  0  0  0
   -1.1619    6.2408   -1.2083 O   0  0  0  0  0  0  0  0  0  0  0  0
    2.0708    7.8125   -0.3579 O   0  0  0  0  0  0  0  0  0  0  0  0
    0.5288    0.6652   -2.6164 H   0  0  0  0  0  0  0  0  0  0  0  0
    0.8502    1.5959   -1.1649 H   0  0  0  0  0  0  0  0  0  0  0  0
    1.0520   -4.4095   -2.1409 H   0  0  0  0  0  0  0  0  0  0  0  0
    1.5554   -3.0371   -1.1547 H   0  0  0  0  0  0  0  0  0  0  0  0
    1.3190   -3.0167   -3.9755 H   0  0  0  0  0  0  0  0  0  0  0  0
    5.6347   -5.7346   -1.2156 H   0  0  0  0  0  0  0  0  0  0  0  0
    5.3951   -4.9281   -2.5994 H   0  0  0  0  0  0  0  0  0  0  0  0
    2.9256   -3.4212    1.4036 H   0  0  0  0  0  0  0  0  0  0  0  0
    6.3053   -3.1098   -1.4717 H   0  0  0  0  0  0  0  0  0  0  0  0
    7.0391    0.1878   -2.6227 H   0  0  0  0  0  0  0  0  0  0  0  0
    6.6356    2.1216   -4.8166 H   0  0  0  0  0  0  0  0  0  0  0  0
    6.0431    0.4310   -4.8637 H   0  0  0  0  0  0  0  0  0  0  0  0
    7.7640    0.8012   -4.7350 H   0  0  0  0  0  0  0  0  0  0  0  0
    4.0339    3.5431   -4.4259 H   0  0  0  0  0  0  0  0  0  0  0  0
   -1.2955    2.5285   -2.0304 H   0  0  0  0  0  0  0  0  0  0  0  0
   -1.3163    2.2516   -3.6217 H   0  0  0  0  0  0  0  0  0  0  0  0
   -0.5443    4.7656    1.4058 H   0  0  0  0  0  0  0  0  0  0  0  0
    0.0808    5.6731    2.7546 H   0  0  0  0  0  0  0  0  0  0  0  0
    2.9021    5.5163    2.6756 H   0  0  0  0  0  0  0  0  0  0  0  0
    2.0792    6.8444    2.4142 H   0  0  0  0  0  0  0  0  0  0  0  0
   -0.4533    8.9160    1.3128 H   0  0  0  0  0  0  0  0  0  0  0  0
    0.8077    8.1843    1.9887 H   0  0  0  0  0  0  0  0  0  0  0  0
   -0.7496    5.3883   -1.4372 H   0  0  0  0  0  0  0  0  0  0  0  0
    2.5532    7.4574    0.4206 H   0  0  0  0  0  0  0  0  0  0  0  0
  1  2  1  0  0  0  0
  1  3  1  6  0  0  0
  1 37  1  0  0  0  0
  1 39  1  0  0  0  0
  3  5  1  0  0  0  0
  3 38  1  0  0  0  0
  3  4  1  6  0  0  0
  5  6  1  0  0  0  0
  5 55  1  0  0  0  0
  5 56  1  0  0  0  0
  6  7  1  0  0  0  0
  6  8  1  1  0  0  0
  6 16  1  0  0  0  0
  8  9  1  0  0  0  0
  8 10  1  6  0  0  0
  8 37  1  0  0  0  0
 10 11  1  0  0  0  0
 10 12  1  1  0  0  0
 10 36  1  0  0  0  0
 12 13  1  0  0  0  0
 12 14  1  6  0  0  0
 12 34  1  0  0  0  0
 14 16  1  0  0  0  0
 14 17  1  0  0  0  0
 14 15  1  6  0  0  0
 18 20  1  1  0  0  0
 18 30  1  0  0  0  0
 18 19  1  0  0  0  0
 18 17  1  0  0  0  0
 20 22  1  1  0  0  0
 20 33  1  0  0  0  0
 20 21  1  0  0  0  0
 22 24  1  6  0  0  0
 22 32  1  0  0  0  0
 22 23  1  0  0  0  0
 24 25  1  0  0  0  0
 24 26  1  6  0  0  0
 24 31  1  0  0  0  0
 26 30  1  0  0  0  0
 26 28  1  0  0  0  0
 26 27  1  6  0  0  0
 28 29  1  0  0  0  0
 28 57  1  0  0  0  0
 28 58  1  0  0  0  0
 29 59  1  0  0  0  0
 31 60  1  0  0  0  0
 31 61  1  0  0  0  0
 32 62  1  0  0  0  0
 33 63  1  0  0  0  0
 34 35  1  0  0  0  0
 34 64  1  0  0  0  0
 35 65  1  0  0  0  0
 35 66  1  0  0  0  0
 35 67  1  0  0  0  0
 36 68  1  0  0  0  0
 38 69  1  0  0  0  0
 38 70  1  0  0  0  0
 39 40  1  0  0  0  0
 40 41  1  0  0  0  0
 40 42  1  6  0  0  0
 42 44  1  1  0  0  0
 42 54  1  0  0  0  0
 42 43  1  0  0  0  0
 44 46  1  1  0  0  0
 44 53  1  0  0  0  0
 44 45  1  0  0  0  0
 46 47  1  1  0  0  0
 46 48  1  0  0  0  0
 46 52  1  0  0  0  0
 48 49  1  0  0  0  0
 48 71  1  0  0  0  0
 48 72  1  0  0  0  0
 49 50  1  0  0  0  0
 49 40  1  6  0  0  0
 49 51  1  0  0  0  0
 51 73  1  0  0  0  0
 51 74  1  0  0  0  0
 52 75  1  0  0  0  0
 52 76  1  0  0  0  0
 53 77  1  0  0  0  0
 54 78  1  0  0  0  0
M  END
$$$$
