2XNZ_3AW_A_1088
 OpenBabel03221817283D

 16 16  0  0  0  0  0  0  0  0999 V2000
   -0.6827    1.1465    0.1041 N   0  0  0  0  0  0  0  0  0  0  0  0
    0.6441    1.0918   -0.0039 C   0  0  0  0  0  0  0  0  0  0  0  0
    1.4020    2.3821    0.0097 C   0  0  0  0  0  0  0  0  0  0  0  0
    1.3508   -0.0328   -0.1102 N   0  0  0  0  0  0  0  0  0  0  0  0
    0.6305   -1.1434   -0.1248 C   0  0  0  0  0  0  0  0  0  0  0  0
   -0.6865   -1.2014   -0.0091 N   0  0  0  0  0  0  0  0  0  0  0  0
   -1.2898   -0.0299    0.1116 C   0  0  0  0  0  0  0  0  0  0  0  0
   -2.6671   -0.0311    0.2193 N   0  0  0  0  0  0  0  0  0  0  0  0
    1.3138   -2.3395   -0.2314 N   0  0  0  0  0  0  0  0  0  0  0  0
    0.7211    3.2389    0.0151 H   0  0  0  0  0  0  0  0  0  0  0  0
    2.0381    2.4522   -0.8777 H   0  0  0  0  0  0  0  0  0  0  0  0
    2.0319    2.4331    0.9028 H   0  0  0  0  0  0  0  0  0  0  0  0
   -3.0437   -0.8756   -0.1887 H   0  0  0  0  0  0  0  0  0  0  0  0
   -3.0396    0.8477   -0.1125 H   0  0  0  0  0  0  0  0  0  0  0  0
    2.2593   -2.2266    0.1066 H   0  0  0  0  0  0  0  0  0  0  0  0
    0.7654   -3.0858    0.1733 H   0  0  0  0  0  0  0  0  0  0  0  0
  1  2  2  0  0  0  0
  1  7  1  0  0  0  0
  2  3  1  0  0  0  0
  2  4  1  0  0  0  0
  3 10  1  0  0  0  0
  3 11  1  0  0  0  0
  3 12  1  0  0  0  0
  4  5  2  0  0  0  0
  5  6  1  0  0  0  0
  5  9  1  0  0  0  0
  6  7  2  0  0  0  0
  7  8  1  0  0  0  0
  8 13  1  0  0  0  0
  8 14  1  0  0  0  0
  9 15  1  0  0  0  0
  9 16  1  0  0  0  0
M  END
$$$$
