temp2.pdb
 OpenBabel10091713583D

 39 40  0  0  1  0  0  0  0  0999 V2000
   57.3760  -18.3270    8.1790 O   0  0  0  0  0  0  0  0  0  0  0  0
   56.8360  -17.2480    8.1110 C   0  0  0  0  0  0  0  0  0  0  0  0
   57.4930  -16.0580    8.6700 C   0  0  0  0  0  0  0  0  0  0  0  0
   57.0570  -14.7940    8.7910 N   0  0  0  0  0  0  0  0  0  0  0  0
   58.0470  -14.0480    9.3550 C   0  0  0  0  0  0  0  0  0  0  0  0
   59.1420  -14.7980    9.6260 N   0  0  1  0  0  0  0  0  0  0  0  0
   60.4040  -14.3060   10.2430 C   0  0  2  0  0  0  0  0  0  0  0  0
   60.1140  -13.4320   11.3310 O   0  0  0  0  0  0  0  0  0  0  0  0
   60.8120  -12.2140   11.2310 C   0  0  1  0  0  0  0  0  0  0  0  0
   61.7390  -12.3490   10.0510 C   0  0  1  0  0  0  0  0  0  0  0  0
   63.0400  -12.7110   10.5310 O   0  0  0  0  0  0  0  0  0  0  0  0
   59.7550  -11.1340   11.1270 C   0  0  0  0  0  0  0  0  0  0  0  0
   60.2120  -10.0260   10.3790 O   0  0  0  0  0  0  0  0  0  0  0  0
   59.7950   -8.5590   10.8550 P   0  0  0  0  0  0  0  0  0  0  0  0
   58.6760   -8.1950    9.9190 O   0  0  0  0  0  0  0  0  0  0  0  0
   59.3100   -8.8070   12.2600 O   0  0  0  0  0  0  0  0  0  0  0  0
   61.0640   -7.7370   10.7510 O   0  0  0  0  0  0  0  0  0  0  0  0
   61.1650  -13.4760    9.2320 C   0  0  1  0  0  0  0  0  0  0  0  0
   62.1840  -14.2550    8.5860 O   0  0  0  0  0  0  0  0  0  0  0  0
   58.8420  -16.0330    9.2400 C   0  0  2  0  0  0  0  0  0  0  0  0
   59.6670  -17.0960    9.3530 N   0  0  0  0  0  0  0  0  0  0  0  0
   55.6720  -17.0830    7.5080 N   0  0  0  0  0  0  0  0  0  0  0  0
   57.6840  -13.6210   10.2665 H   0  0  0  0  0  0  0  0  0  0  0  0
   58.3276  -13.2836    8.6609 H   0  0  0  0  0  0  0  0  0  0  0  0
   60.9652  -15.1564   10.5697 H   0  0  0  0  0  0  0  0  0  0  0  0
   61.4301  -11.9554   12.0653 H   0  0  0  0  0  0  0  0  0  0  0  0
   61.8266  -11.4470    9.4821 H   0  0  0  0  0  0  0  0  0  0  0  0
   62.9774  -13.5283   11.0497 H   0  0  0  0  0  0  0  0  0  0  0  0
   59.4974  -10.8049   12.1120 H   0  0  0  0  0  0  0  0  0  0  0  0
   58.9045  -11.5468   10.6259 H   0  0  0  0  0  0  0  0  0  0  0  0
   59.0339   -8.0451    9.0300 H   0  0  0  0  0  0  0  0  0  0  0  0
   60.0632   -9.0377   12.8261 H   0  0  0  0  0  0  0  0  0  0  0  0
   60.5494  -13.1167    8.4339 H   0  0  0  0  0  0  0  0  0  0  0  0
   62.7865  -14.6172    9.2544 H   0  0  0  0  0  0  0  0  0  0  0  0
   59.4352  -16.9174    9.3447 H   0  0  0  0  0  0  0  0  0  0  0  0
   60.6283  -16.7997    9.1843 H   0  0  0  0  0  0  0  0  0  0  0  0
   59.4044  -17.8045    8.6679 H   0  0  0  0  0  0  0  0  0  0  0  0
   55.2034  -17.8580    7.1219 H   0  0  0  0  0  0  0  0  0  0  0  0
   55.2733  -16.1851    7.4448 H   0  0  0  0  0  0  0  0  0  0  0  0
  1  2  2  0  0  0  0
  2 22  1  0  0  0  0
  2  3  1  0  0  0  0
  3 20  1  0  0  0  0
  3  4  2  0  0  0  0
  4  5  1  0  0  0  0
  5 23  1  0  0  0  0
  5 24  1  0  0  0  0
  6  5  1  1  0  0  0
  6  7  1  0  0  0  0
  7 18  1  0  0  0  0
  7  8  1  0  0  0  0
  7 25  1  1  0  0  0
  8  9  1  0  0  0  0
  9 12  1  0  0  0  0
  9 10  1  0  0  0  0
  9 26  1  1  0  0  0
 10 18  1  0  0  0  0
 10 11  1  0  0  0  0
 10 27  1  6  0  0  0
 11 28  1  0  0  0  0
 12 13  1  0  0  0  0
 12 29  1  0  0  0  0
 12 30  1  0  0  0  0
 13 14  1  0  0  0  0
 14 17  2  0  0  0  0
 14 16  1  0  0  0  0
 14 15  1  0  0  0  0
 15 31  1  0  0  0  0
 16 32  1  0  0  0  0
 18 19  1  0  0  0  0
 18 33  1  6  0  0  0
 19 34  1  0  0  0  0
 20  6  1  0  0  0  0
 20 21  1  0  0  0  0
 20 35  1  1  0  0  0
 21 36  1  0  0  0  0
 21 37  1  0  0  0  0
 22 38  1  0  0  0  0
 22 39  1  0  0  0  0
M  END
$$$$
