1LVJ_PMZ_A_47
 OpenBabel10281719403D
Coordinates from PDB:1LVJ:A:47 Model:1 without hydrogens
 45 47  0  0  0  0  0  0  0  0999 V2000
  -21.9850    8.8020    6.0990 S   0  0  0  0  0  0  0  0  0  0  0  0
  -24.8150    7.9550    6.4770 N   0  0  0  0  0  0  0  0  0  0  0  0
  -24.5770    7.1350    8.7320 C   0  0  0  0  0  0  0  0  0  0  0  0
  -23.7570    6.9120    9.8460 C   0  0  0  0  0  0  0  0  0  0  0  0
  -22.4130    7.2710    9.8100 C   0  0  0  0  0  0  0  0  0  0  0  0
  -21.8800    7.8490    8.6630 C   0  0  0  0  0  0  0  0  0  0  0  0
  -22.6850    8.0730    7.5490 C   0  0  0  0  0  0  0  0  0  0  0  0
  -24.0390    7.7180    7.5760 C   0  0  0  0  0  0  0  0  0  0  0  0
  -22.9130    7.7320    5.0460 C   0  0  0  0  0  0  0  0  0  0  0  0
  -22.3230    7.1930    3.8990 C   0  0  0  0  0  0  0  0  0  0  0  0
  -23.0630    6.3500    3.0650 C   0  0  0  0  0  0  0  0  0  0  0  0
  -24.3930    6.0520    3.3790 C   0  0  0  0  0  0  0  0  0  0  0  0
  -24.9760    6.5940    4.5250 C   0  0  0  0  0  0  0  0  0  0  0  0
  -24.2430    7.4280    5.3580 C   0  0  0  0  0  0  0  0  0  0  0  0
  -26.2940    7.9710    6.5970 C   0  0  0  0  0  0  0  0  0  0  0  0
  -26.9970    6.6150    6.9390 C   0  0  0  0  0  0  0  0  0  0  0  0
  -27.9320    6.0910    5.7960 C   0  0  0  0  0  0  0  0  0  0  0  0
  -28.4800    4.7170    5.9290 N   0  0  0  0  0  0  0  0  0  0  0  0
  -27.5340    3.8210    6.6430 C   0  0  0  0  0  0  0  0  0  0  0  0
  -28.8580    4.1650    4.5820 C   0  0  0  0  0  0  0  0  0  0  0  0
  -24.3200    6.2800   11.0870 C   0  0  0  0  0  0  0  0  0  0  0  0
  -25.6600    5.5850   11.0920 C   0  0  0  0  0  0  0  0  0  0  0  0
  -23.6540    6.2720   12.1100 O   0  0  0  0  0  0  0  0  0  0  0  0
  -25.5742    6.8709    8.7623 H   0  0  0  0  0  0  0  0  0  0  0  0
  -21.8126    7.1085   10.6335 H   0  0  0  0  0  0  0  0  0  0  0  0
  -20.8828    8.1133    8.6372 H   0  0  0  0  0  0  0  0  0  0  0  0
  -21.3424    7.4172    3.6683 H   0  0  0  0  0  0  0  0  0  0  0  0
  -22.6289    5.9483    2.2193 H   0  0  0  0  0  0  0  0  0  0  0  0
  -24.9425    5.4319    2.7638 H   0  0  0  0  0  0  0  0  0  0  0  0
  -25.9577    6.3736    4.7546 H   0  0  0  0  0  0  0  0  0  0  0  0
  -26.6893    8.3123    5.6631 H   0  0  0  0  0  0  0  0  0  0  0  0
  -26.4967    8.6063    7.4338 H   0  0  0  0  0  0  0  0  0  0  0  0
  -27.5854    6.7517    7.8222 H   0  0  0  0  0  0  0  0  0  0  0  0
  -26.2259    5.8857    7.0745 H   0  0  0  0  0  0  0  0  0  0  0  0
  -27.3727    6.1253    4.8844 H   0  0  0  0  0  0  0  0  0  0  0  0
  -28.7898    6.7295    5.8336 H   0  0  0  0  0  0  0  0  0  0  0  0
  -27.2892    4.2459    7.5940 H   0  0  0  0  0  0  0  0  0  0  0  0
  -26.6423    3.7084    6.0624 H   0  0  0  0  0  0  0  0  0  0  0  0
  -27.9893    2.8634    6.7867 H   0  0  0  0  0  0  0  0  0  0  0  0
  -29.5381    4.8357    4.0998 H   0  0  0  0  0  0  0  0  0  0  0  0
  -29.3259    3.2108    4.7061 H   0  0  0  0  0  0  0  0  0  0  0  0
  -27.9789    4.0558    3.9818 H   0  0  0  0  0  0  0  0  0  0  0  0
  -26.1154    5.6814   10.1286 H   0  0  0  0  0  0  0  0  0  0  0  0
  -26.2911    6.0324   11.8312 H   0  0  0  0  0  0  0  0  0  0  0  0
  -25.5233    4.5485   11.3198 H   0  0  0  0  0  0  0  0  0  0  0  0
  1  7  1  0  0  0  0
  1  9  1  0  0  0  0
  2  8  1  0  0  0  0
  2 14  1  0  0  0  0
  2 15  1  0  0  0  0
  3  4  2  0  0  0  0
  3  8  1  0  0  0  0
  3 24  1  0  0  0  0
  4  5  1  0  0  0  0
  4 21  1  0  0  0  0
  5  6  2  0  0  0  0
  5 25  1  0  0  0  0
  6  7  1  0  0  0  0
  6 26  1  0  0  0  0
  7  8  2  0  0  0  0
  9 10  2  0  0  0  0
  9 14  1  0  0  0  0
 10 11  1  0  0  0  0
 10 27  1  0  0  0  0
 11 12  2  0  0  0  0
 11 28  1  0  0  0  0
 12 13  1  0  0  0  0
 12 29  1  0  0  0  0
 13 14  2  0  0  0  0
 13 30  1  0  0  0  0
 15 16  1  0  0  0  0
 15 31  1  0  0  0  0
 15 32  1  0  0  0  0
 16 17  1  0  0  0  0
 16 33  1  0  0  0  0
 16 34  1  0  0  0  0
 17 18  1  0  0  0  0
 17 35  1  0  0  0  0
 17 36  1  0  0  0  0
 18 19  1  0  0  0  0
 18 20  1  0  0  0  0
 19 37  1  0  0  0  0
 19 38  1  0  0  0  0
 19 39  1  0  0  0  0
 20 40  1  0  0  0  0
 20 41  1  0  0  0  0
 20 42  1  0  0  0  0
 21 22  1  0  0  0  0
 21 23  2  0  0  0  0
 22 43  1  0  0  0  0
 22 44  1  0  0  0  0
 22 45  1  0  0  0  0
M  END
$$$$
