ligand.pdb
 OpenBabel03221817303D

 51 53  0  0  1  0  0  0  0  0999 V2000
    8.9084    0.5368    1.1216 N   0  0  0  0  0  0  0  0  0  0  0  0
    8.2317    1.2250    0.0019 C   0  0  2  0  0  0  0  0  0  0  0  0
    8.8079    1.0242   -0.9054 H   0  0  0  0  0  0  0  0  0  0  0  0
    8.2287    2.7386    0.2698 C   0  0  0  0  0  0  0  0  0  0  0  0
    7.3884    3.3261    0.9361 O   0  0  0  0  0  0  0  0  0  0  0  0
    9.3240    3.3655   -0.2235 O   0  0  0  0  0  0  0  0  0  0  0  0
    6.8099    0.6755   -0.1733 C   0  0  0  0  0  0  0  0  0  0  0  0
    6.0573    1.2703   -1.3596 C   0  0  0  0  0  0  0  0  0  0  0  0
    6.8585    1.0179   -2.9236 S   0  0  2  0  0  0  0  0  0  0  0  0
    8.0969    1.5378   -2.9820 H   0  0  0  0  0  0  0  0  0  0  0  0
    5.8003    1.7900   -4.1126 C   0  0  0  0  0  0  0  0  0  0  0  0
    6.8741   -0.7351   -3.2529 C   0  0  0  0  0  0  0  0  0  0  0  0
    7.4321   -1.0845   -4.6297 C   0  0  1  0  0  0  0  0  0  0  0  0
    6.8197   -0.6097   -5.4065 H   0  0  0  0  0  0  0  0  0  0  0  0
    8.7823   -0.6067   -4.7811 O   0  0  0  0  0  0  0  0  0  0  0  0
    9.3277   -1.3718   -5.8768 C   0  0  2  0  0  0  0  0  0  0  0  0
    8.9629   -0.9476   -6.8215 H   0  0  0  0  0  0  0  0  0  0  0  0
    8.8065   -2.7977   -5.6605 C   0  0  1  0  0  0  0  0  0  0  0  0
    9.5035   -3.3933   -5.0593 H   0  0  0  0  0  0  0  0  0  0  0  0
    7.5143   -2.5968   -4.8614 C   0  0  2  0  0  0  0  0  0  0  0  0
    7.5911   -3.1400   -3.9129 H   0  0  0  0  0  0  0  0  0  0  0  0
    6.3621   -3.0783   -5.5453 O   0  0  0  0  0  0  0  0  0  0  0  0
    8.5513   -3.5079   -6.8766 O   0  0  0  0  0  0  0  0  0  0  0  0
   10.7698   -1.2218   -5.8999 N   0  0  0  0  0  0  0  0  0  0  0  0
   11.4714   -0.1385   -5.4341 C   0  0  0  0  0  0  0  0  0  0  0  0
   12.7526   -0.2121   -5.7249 N   0  0  0  0  0  0  0  0  0  0  0  0
   12.8852   -1.3882   -6.4314 C   0  0  0  0  0  0  0  0  0  0  0  0
   13.9908   -2.0036   -7.0424 C   0  0  0  0  0  0  0  0  0  0  0  0
   15.2584   -1.4404   -7.0661 N   0  0  0  0  0  0  0  0  0  0  0  0
   13.8109   -3.2047   -7.6362 N   0  0  0  0  0  0  0  0  0  0  0  0
   12.5678   -3.7315   -7.6555 C   0  0  0  0  0  0  0  0  0  0  0  0
   11.4236   -3.2165   -7.1475 N   0  0  0  0  0  0  0  0  0  0  0  0
   11.6657   -2.0416   -6.5364 C   0  0  0  0  0  0  0  0  0  0  0  0
    8.3526    0.6788    1.9698 H   0  0  0  0  0  0  0  0  0  0  0  0
    9.8049    0.9835    1.3162 H   0  0  0  0  0  0  0  0  0  0  0  0
    9.9269    2.7709   -0.7109 H   0  0  0  0  0  0  0  0  0  0  0  0
    6.2203    0.8704    0.7328 H   0  0  0  0  0  0  0  0  0  0  0  0
    6.8520   -0.4147   -0.2849 H   0  0  0  0  0  0  0  0  0  0  0  0
    5.9262    2.3507   -1.2444 H   0  0  0  0  0  0  0  0  0  0  0  0
    5.0617    0.8208   -1.4343 H   0  0  0  0  0  0  0  0  0  0  0  0
    6.2630    1.7124   -5.0967 H   0  0  0  0  0  0  0  0  0  0  0  0
    5.6951    2.8414   -3.8360 H   0  0  0  0  0  0  0  0  0  0  0  0
    4.8280    1.2957   -4.0984 H   0  0  0  0  0  0  0  0  0  0  0  0
    5.8496   -1.1011   -3.1369 H   0  0  0  0  0  0  0  0  0  0  0  0
    7.5017   -1.1709   -2.4690 H   0  0  0  0  0  0  0  0  0  0  0  0
    6.6966   -3.7175   -6.2099 H   0  0  0  0  0  0  0  0  0  0  0  0
    9.4262   -3.6246   -7.3081 H   0  0  0  0  0  0  0  0  0  0  0  0
   10.9936    0.6773   -4.9053 H   0  0  0  0  0  0  0  0  0  0  0  0
   15.4097   -0.7265   -6.3630 H   0  0  0  0  0  0  0  0  0  0  0  0
   15.9915   -2.1168   -7.2288 H   0  0  0  0  0  0  0  0  0  0  0  0
   12.4795   -4.6981   -8.1449 H   0  0  0  0  0  0  0  0  0  0  0  0
  1 34  1  0  0  0  0
  1 35  1  0  0  0  0
  2  4  1  0  0  0  0
  2  7  1  0  0  0  0
  2  3  1  6  0  0  0
  2  1  1  0  0  0  0
  4  5  2  0  0  0  0
  4  6  1  0  0  0  0
  6 36  1  0  0  0  0
  7  8  1  0  0  0  0
  7 37  1  0  0  0  0
  7 38  1  0  0  0  0
  8 39  1  0  0  0  0
  8 40  1  0  0  0  0
  9 11  1  0  0  0  0
  9 12  1  0  0  0  0
  9 10  1  6  0  0  0
  9  8  1  0  0  0  0
 11 41  1  0  0  0  0
 11 42  1  0  0  0  0
 11 43  1  0  0  0  0
 12 13  1  0  0  0  0
 12 44  1  0  0  0  0
 12 45  1  0  0  0  0
 13 14  1  0  0  0  0
 13 15  1  0  0  0  0
 13 20  1  6  0  0  0
 15 16  1  0  0  0  0
 16 18  1  1  0  0  0
 16 24  1  0  0  0  0
 16 17  1  0  0  0  0
 18 19  1  0  0  0  0
 18 20  1  1  0  0  0
 18 23  1  0  0  0  0
 20 21  1  1  0  0  0
 20 22  1  0  0  0  0
 22 46  1  0  0  0  0
 23 47  1  0  0  0  0
 24 25  1  0  0  0  0
 24 33  1  0  0  0  0
 25 26  2  0  0  0  0
 25 48  1  0  0  0  0
 26 27  1  0  0  0  0
 27 28  2  0  0  0  0
 27 33  1  0  0  0  0
 28 29  1  0  0  0  0
 28 30  1  0  0  0  0
 29 49  1  0  0  0  0
 29 50  1  0  0  0  0
 30 31  2  0  0  0  0
 31 32  1  0  0  0  0
 31 51  1  0  0  0  0
 32 33  2  0  0  0  0
M  END
$$$$
