2L8H_L8H_A_2
 OpenBabel03221817253D

 24 25  0  0  0  0  0  0  0  0999 V2000
    0.9433    0.1344    0.3306 N   0  0  0  0  0  0  0  0  0  0  0  0
    2.3292    0.0745    0.1242 C   0  0  0  0  0  0  0  0  0  0  0  0
    2.9896   -1.1556    0.1438 C   0  0  0  0  0  0  0  0  0  0  0  0
    4.3857   -1.2279    0.0463 C   0  0  0  0  0  0  0  0  0  0  0  0
    5.0959   -2.4062    0.0260 O   0  0  0  0  0  0  0  0  0  0  0  0
    4.3638   -3.6204    0.1230 C   0  0  0  0  0  0  0  0  0  0  0  0
    5.1522   -0.0381   -0.0310 C   0  0  0  0  0  0  0  0  0  0  0  0
    6.5601   -0.0351   -0.1473 C   0  0  0  0  0  0  0  0  0  0  0  0
    7.2862    1.1560   -0.2078 C   0  0  0  0  0  0  0  0  0  0  0  0
    6.6221    2.3744   -0.1450 C   0  0  0  0  0  0  0  0  0  0  0  0
    5.2327    2.4008   -0.0275 C   0  0  0  0  0  0  0  0  0  0  0  0
    4.4877    1.2096    0.0221 C   0  0  0  0  0  0  0  0  0  0  0  0
    3.0882    1.2453    0.1252 C   0  0  0  0  0  0  0  0  0  0  0  0
    0.4447   -0.6847   -0.0031 H   0  0  0  0  0  0  0  0  0  0  0  0
    0.5204    0.9969    0.0006 H   0  0  0  0  0  0  0  0  0  0  0  0
    2.3888   -2.0533    0.2329 H   0  0  0  0  0  0  0  0  0  0  0  0
    5.0812   -4.4461    0.0903 H   0  0  0  0  0  0  0  0  0  0  0  0
    3.6825   -3.7396   -0.7258 H   0  0  0  0  0  0  0  0  0  0  0  0
    3.8281   -3.6842    1.0758 H   0  0  0  0  0  0  0  0  0  0  0  0
    7.1027   -0.9777   -0.1912 H   0  0  0  0  0  0  0  0  0  0  0  0
    8.3684    1.1266   -0.3010 H   0  0  0  0  0  0  0  0  0  0  0  0
    7.1827    3.3043   -0.1883 H   0  0  0  0  0  0  0  0  0  0  0  0
    4.7308    3.3648    0.0202 H   0  0  0  0  0  0  0  0  0  0  0  0
    2.5813    2.2048    0.1970 H   0  0  0  0  0  0  0  0  0  0  0  0
  1  2  1  0  0  0  0
  1 14  1  0  0  0  0
  1 15  1  0  0  0  0
  2  3  2  0  0  0  0
  2 13  1  0  0  0  0
  3  4  1  0  0  0  0
  3 16  1  0  0  0  0
  4  5  1  0  0  0  0
  4  7  2  0  0  0  0
  5  6  1  0  0  0  0
  6 17  1  0  0  0  0
  6 18  1  0  0  0  0
  6 19  1  0  0  0  0
  7  8  1  0  0  0  0
  7 12  1  0  0  0  0
  8  9  2  0  0  0  0
  8 20  1  0  0  0  0
  9 10  1  0  0  0  0
  9 21  1  0  0  0  0
 10 11  2  0  0  0  0
 10 22  1  0  0  0  0
 11 12  1  0  0  0  0
 11 23  1  0  0  0  0
 12 13  2  0  0  0  0
 13 24  1  0  0  0  0
M  END
$$$$
