ligand.pdb
 OpenBabel03221817293D

 24 23  0  0  1  0  0  0  0  0999 V2000
    0.9666   -0.1450    0.2496 N   0  0  0  0  0  0  0  0  0  0  0  0
    2.4293   -0.0217    0.0959 C   0  0  2  0  0  0  0  0  0  0  0  0
    2.9062   -0.3301    1.0339 H   0  0  0  0  0  0  0  0  0  0  0  0
    2.7796    1.4534   -0.1767 C   0  0  0  0  0  0  0  0  0  0  0  0
    2.8472    1.9686   -1.2821 O   0  0  0  0  0  0  0  0  0  0  0  0
    2.9226    2.1734    0.9647 O   0  0  0  0  0  0  0  0  0  0  0  0
    2.9233   -0.9482   -1.0243 C   0  0  0  0  0  0  0  0  0  0  0  0
    4.4549   -0.9710   -1.1147 C   0  0  0  0  0  0  0  0  0  0  0  0
    4.9449   -1.9324   -2.1994 C   0  0  0  0  0  0  0  0  0  0  0  0
    6.4707   -1.9185   -2.2889 C   0  0  0  0  0  0  0  0  0  0  0  0
    6.9304   -2.8351   -3.3235 N   0  0  0  0  0  0  0  0  0  0  0  0
    0.5306    0.0713   -0.6518 H   0  0  0  0  0  0  0  0  0  0  0  0
    0.6142    0.5684    0.8883 H   0  0  0  0  0  0  0  0  0  0  0  0
    2.8084    1.6423    1.7766 H   0  0  0  0  0  0  0  0  0  0  0  0
    2.5064   -0.6386   -1.9913 H   0  0  0  0  0  0  0  0  0  0  0  0
    2.5663   -1.9693   -0.8356 H   0  0  0  0  0  0  0  0  0  0  0  0
    4.8735   -1.2713   -0.1459 H   0  0  0  0  0  0  0  0  0  0  0  0
    4.8323    0.0349   -1.3307 H   0  0  0  0  0  0  0  0  0  0  0  0
    4.5134   -1.6444   -3.1668 H   0  0  0  0  0  0  0  0  0  0  0  0
    4.5916   -2.9469   -1.9766 H   0  0  0  0  0  0  0  0  0  0  0  0
    6.9083   -2.2079   -1.3270 H   0  0  0  0  0  0  0  0  0  0  0  0
    6.8237   -0.9086   -2.5243 H   0  0  0  0  0  0  0  0  0  0  0  0
    6.6410   -3.7850   -3.0978 H   0  0  0  0  0  0  0  0  0  0  0  0
    7.9494   -2.8414   -3.3417 H   0  0  0  0  0  0  0  0  0  0  0  0
  1 12  1  0  0  0  0
  1 13  1  0  0  0  0
  2  4  1  0  0  0  0
  2  7  1  0  0  0  0
  2  3  1  1  0  0  0
  2  1  1  0  0  0  0
  4  5  2  0  0  0  0
  4  6  1  0  0  0  0
  6 14  1  0  0  0  0
  7  8  1  0  0  0  0
  7 15  1  0  0  0  0
  7 16  1  0  0  0  0
  8  9  1  0  0  0  0
  8 17  1  0  0  0  0
  8 18  1  0  0  0  0
  9 10  1  0  0  0  0
  9 19  1  0  0  0  0
  9 20  1  0  0  0  0
 10 11  1  0  0  0  0
 10 21  1  0  0  0  0
 10 22  1  0  0  0  0
 11 23  1  0  0  0  0
 11 24  1  0  0  0  0
M  END
$$$$
