2ET4_NMY_A_50
 OpenBabel03221817203D

 88 91  0  0  1  0  0  0  0  0999 V2000
   -1.9211   -9.7653    1.7044 C   0  0  2  0  0  0  0  0  0  0  0  0
   -1.9649   -9.0342    2.5153 H   0  0  0  0  0  0  0  0  0  0  0  0
   -1.4639  -11.0125    2.2689 O   0  0  0  0  0  0  0  0  0  0  0  0
   -0.1021  -10.9763    2.7683 C   0  0  1  0  0  0  0  0  0  0  0  0
    0.5546  -10.5856    1.9810 H   0  0  0  0  0  0  0  0  0  0  0  0
    0.0016  -10.0951    4.0425 C   0  0  1  0  0  0  0  0  0  0  0  0
   -0.4109   -9.1134    3.7979 H   0  0  0  0  0  0  0  0  0  0  0  0
   -0.8662  -10.7176    5.1674 C   0  0  2  0  0  0  0  0  0  0  0  0
   -0.8369  -10.0990    6.0670 H   0  0  0  0  0  0  0  0  0  0  0  0
   -0.3857  -12.1421    5.5356 C   0  0  2  0  0  0  0  0  0  0  0  0
   -1.1070  -12.5721    6.2371 H   0  0  0  0  0  0  0  0  0  0  0  0
    0.9233  -12.1808    6.2077 N   0  0  0  0  0  0  0  0  0  0  0  0
   -0.3703  -13.0386    4.2877 C   0  0  0  0  0  0  0  0  0  0  0  0
    0.3503  -12.4449    3.0575 C   0  0  2  0  0  0  0  0  0  0  0  0
    0.0587  -13.0666    2.2022 H   0  0  0  0  0  0  0  0  0  0  0  0
    1.8131  -12.5587    3.1728 N   0  0  0  0  0  0  0  0  0  0  0  0
   -2.2546  -10.7337    4.7985 O   0  0  0  0  0  0  0  0  0  0  0  0
    1.3840   -9.9013    4.4222 O   0  0  0  0  0  0  0  0  0  0  0  0
    1.5020   -8.9318    5.4655 C   0  0  1  0  0  0  0  0  0  0  0  0
    0.9250   -9.2605    6.3325 H   0  0  0  0  0  0  0  0  0  0  0  0
    2.9349   -8.6892    5.9358 C   0  0  1  0  0  0  0  0  0  0  0  0
    3.6000   -8.5298    5.0797 H   0  0  0  0  0  0  0  0  0  0  0  0
    2.7189   -7.4024    6.7411 C   0  0  1  0  0  0  0  0  0  0  0  0
    3.6542   -6.8533    6.8830 H   0  0  0  0  0  0  0  0  0  0  0  0
    1.6602   -6.6706    5.8848 C   0  0  2  0  0  0  0  0  0  0  0  0
    0.8494   -6.2449    6.4741 H   0  0  0  0  0  0  0  0  0  0  0  0
    1.0323   -7.6568    5.0320 O   0  0  0  0  0  0  0  0  0  0  0  0
    2.2693   -5.5815    5.0099 C   0  0  0  0  0  0  0  0  0  0  0  0
    3.2084   -6.1335    4.0884 O   0  0  0  0  0  0  0  0  0  0  0  0
    2.2053   -7.7831    8.0420 O   0  0  0  0  0  0  0  0  0  0  0  0
    2.1692   -6.6977    8.9861 C   0  0  2  0  0  0  0  0  0  0  0  0
    3.1772   -6.2627    9.0256 H   0  0  0  0  0  0  0  0  0  0  0  0
    1.7825   -7.2270   10.4023 C   0  0  1  0  0  0  0  0  0  0  0  0
    2.5495   -7.9404   10.7261 H   0  0  0  0  0  0  0  0  0  0  0  0
    1.7360   -6.0270   11.3868 C   0  0  2  0  0  0  0  0  0  0  0  0
    1.3260   -6.3787   12.3402 H   0  0  0  0  0  0  0  0  0  0  0  0
    0.8490   -4.8811   10.8632 C   0  0  1  0  0  0  0  0  0  0  0  0
    0.9679   -3.9907   11.4922 H   0  0  0  0  0  0  0  0  0  0  0  0
    1.2435   -4.5253    9.4141 C   0  0  1  0  0  0  0  0  0  0  0  0
    2.2583   -4.1035    9.4021 H   0  0  0  0  0  0  0  0  0  0  0  0
    1.2412   -5.6958    8.5838 O   0  0  0  0  0  0  0  0  0  0  0  0
    0.2759   -3.4813    8.8143 C   0  0  0  0  0  0  0  0  0  0  0  0
    0.6637   -3.0523    7.4612 N   0  0  0  0  0  0  0  0  0  0  0  0
   -0.5322   -5.2585   10.9190 O   0  0  0  0  0  0  0  0  0  0  0  0
    3.0504   -5.5530   11.7051 O   0  0  0  0  0  0  0  0  0  0  0  0
    0.4908   -7.9616   10.3862 N   0  0  0  0  0  0  0  0  0  0  0  0
    3.4643   -9.7455    6.7234 O   0  0  0  0  0  0  0  0  0  0  0  0
   -3.3889   -9.9196    1.1721 C   0  0  2  0  0  0  0  0  0  0  0  0
   -4.0324  -10.1077    2.0412 H   0  0  0  0  0  0  0  0  0  0  0  0
   -3.5714  -11.0821    0.2719 N   0  0  0  0  0  0  0  0  0  0  0  0
   -3.8260   -8.6027    0.4808 C   0  0  1  0  0  0  0  0  0  0  0  0
   -4.7641   -8.7938   -0.0585 H   0  0  0  0  0  0  0  0  0  0  0  0
   -4.1419   -7.5572    1.4043 O   0  0  0  0  0  0  0  0  0  0  0  0
   -2.7780   -8.1075   -0.5303 C   0  0  2  0  0  0  0  0  0  0  0  0
   -3.0439   -7.1122   -0.9063 H   0  0  0  0  0  0  0  0  0  0  0  0
   -2.7432   -8.9912   -1.6625 O   0  0  0  0  0  0  0  0  0  0  0  0
   -1.3655   -8.0568    0.0849 C   0  0  2  0  0  0  0  0  0  0  0  0
   -0.6496   -7.9524   -0.7408 H   0  0  0  0  0  0  0  0  0  0  0  0
   -1.0207   -9.3052    0.7051 O   0  0  0  0  0  0  0  0  0  0  0  0
   -1.1527   -6.8455    1.0279 C   0  0  0  0  0  0  0  0  0  0  0  0
    0.2095   -6.7818    1.5738 N   0  0  0  0  0  0  0  0  0  0  0  0
    0.8924  -11.6247    7.0624 H   0  0  0  0  0  0  0  0  0  0  0  0
    1.6359  -11.7315    5.6215 H   0  0  0  0  0  0  0  0  0  0  0  0
   -1.4123  -13.2478    4.0074 H   0  0  0  0  0  0  0  0  0  0  0  0
    0.0507  -14.0234    4.5402 H   0  0  0  0  0  0  0  0  0  0  0  0
    2.0524  -13.2985    3.8419 H   0  0  0  0  0  0  0  0  0  0  0  0
    2.2024  -11.6974    3.5567 H   0  0  0  0  0  0  0  0  0  0  0  0
   -2.3295  -11.2247    3.9541 H   0  0  0  0  0  0  0  0  0  0  0  0
    1.4954   -5.0721    4.4284 H   0  0  0  0  0  0  0  0  0  0  0  0
    2.7897   -4.8397    5.6240 H   0  0  0  0  0  0  0  0  0  0  0  0
    2.6656   -6.6027    3.4231 H   0  0  0  0  0  0  0  0  0  0  0  0
    0.2464   -2.5969    9.4620 H   0  0  0  0  0  0  0  0  0  0  0  0
   -0.7384   -3.8901    8.7511 H   0  0  0  0  0  0  0  0  0  0  0  0
    1.6111   -2.6876    7.4624 H   0  0  0  0  0  0  0  0  0  0  0  0
    0.0558   -2.2902    7.1710 H   0  0  0  0  0  0  0  0  0  0  0  0
   -0.7453   -5.5029   11.8368 H   0  0  0  0  0  0  0  0  0  0  0  0
    3.5097   -5.2483   10.9056 H   0  0  0  0  0  0  0  0  0  0  0  0
   -0.2052   -7.3550    9.9349 H   0  0  0  0  0  0  0  0  0  0  0  0
    0.1549   -8.1104   11.3354 H   0  0  0  0  0  0  0  0  0  0  0  0
    3.0585   -9.6501    7.6094 H   0  0  0  0  0  0  0  0  0  0  0  0
   -2.9433  -10.9599   -0.5298 H   0  0  0  0  0  0  0  0  0  0  0  0
   -4.5185  -11.0911   -0.1051 H   0  0  0  0  0  0  0  0  0  0  0  0
   -3.8382   -7.7864    2.3000 H   0  0  0  0  0  0  0  0  0  0  0  0
   -3.5805   -8.8830   -2.1470 H   0  0  0  0  0  0  0  0  0  0  0  0
   -1.3563   -5.9163    0.4839 H   0  0  0  0  0  0  0  0  0  0  0  0
   -1.8302   -6.8708    1.8831 H   0  0  0  0  0  0  0  0  0  0  0  0
    0.8750   -6.7574    0.7994 H   0  0  0  0  0  0  0  0  0  0  0  0
    0.4058   -7.6643    2.0520 H   0  0  0  0  0  0  0  0  0  0  0  0
  1 48  1  6  0  0  0
  1 59  1  0  0  0  0
  1  3  1  0  0  0  0
  1  2  1  0  0  0  0
  3  4  1  0  0  0  0
  4  5  1  0  0  0  0
  4  6  1  1  0  0  0
  6  8  1  1  0  0  0
  6 18  1  0  0  0  0
  6  7  1  0  0  0  0
  8 10  1  1  0  0  0
  8 17  1  0  0  0  0
  8  9  1  0  0  0  0
 10 11  1  1  0  0  0
 10 12  1  0  0  0  0
 10 13  1  0  0  0  0
 12 62  1  0  0  0  0
 12 63  1  0  0  0  0
 13 14  1  0  0  0  0
 13 64  1  0  0  0  0
 13 65  1  0  0  0  0
 14 15  1  0  0  0  0
 14  4  1  6  0  0  0
 14 16  1  0  0  0  0
 16 66  1  0  0  0  0
 16 67  1  0  0  0  0
 17 68  1  0  0  0  0
 18 19  1  0  0  0  0
 19 20  1  0  0  0  0
 19 21  1  1  0  0  0
 19 27  1  0  0  0  0
 21 23  1  1  0  0  0
 21 47  1  0  0  0  0
 21 22  1  0  0  0  0
 23 24  1  0  0  0  0
 23 25  1  6  0  0  0
 23 30  1  0  0  0  0
 25 27  1  0  0  0  0
 25 28  1  0  0  0  0
 25 26  1  1  0  0  0
 28 29  1  0  0  0  0
 28 69  1  0  0  0  0
 28 70  1  0  0  0  0
 29 71  1  0  0  0  0
 31 41  1  0  0  0  0
 31 32  1  1  0  0  0
 31 30  1  0  0  0  0
 33 31  1  6  0  0  0
 33 46  1  0  0  0  0
 33 34  1  0  0  0  0
 35 33  1  6  0  0  0
 35 45  1  0  0  0  0
 35 36  1  0  0  0  0
 37 35  1  1  0  0  0
 37 38  1  0  0  0  0
 37 44  1  0  0  0  0
 39 37  1  1  0  0  0
 39 40  1  0  0  0  0
 39 41  1  0  0  0  0
 39 42  1  0  0  0  0
 42 43  1  0  0  0  0
 42 72  1  0  0  0  0
 42 73  1  0  0  0  0
 43 74  1  0  0  0  0
 43 75  1  0  0  0  0
 44 76  1  0  0  0  0
 45 77  1  0  0  0  0
 46 78  1  0  0  0  0
 46 79  1  0  0  0  0
 47 80  1  0  0  0  0
 48 51  1  6  0  0  0
 48 50  1  0  0  0  0
 48 49  1  0  0  0  0
 50 81  1  0  0  0  0
 50 82  1  0  0  0  0
 51 54  1  6  0  0  0
 51 53  1  0  0  0  0
 51 52  1  0  0  0  0
 53 83  1  0  0  0  0
 54 55  1  0  0  0  0
 54 56  1  0  0  0  0
 54 57  1  1  0  0  0
 56 84  1  0  0  0  0
 57 59  1  0  0  0  0
 57 60  1  0  0  0  0
 57 58  1  6  0  0  0
 60 61  1  0  0  0  0
 60 85  1  0  0  0  0
 60 86  1  0  0  0  0
 61 87  1  0  0  0  0
 61 88  1  0  0  0  0
M  END
$$$$
