4F8V_SIS_A_101
 OpenBabel03221817313D

 68 70  0  0  1  0  0  0  0  0999 V2000
    7.5365    4.4973    4.8078 C   0  0  2  0  0  0  0  0  0  0  0  0
    6.5710    4.6991    5.2851 H   0  0  0  0  0  0  0  0  0  0  0  0
    8.6438    5.2140    5.6573 C   0  0  1  0  0  0  0  0  0  0  0  0
    8.3075    6.2424    5.8430 H   0  0  0  0  0  0  0  0  0  0  0  0
    8.8362    4.5108    7.0140 C   0  0  0  0  0  0  0  0  0  0  0  0
    8.5130    3.0576    6.9854 C   0  0  0  0  0  0  0  0  0  0  0  0
    8.0097    2.4333    5.9103 C   0  0  0  0  0  0  0  0  0  0  0  0
    7.6940    0.9579    5.9106 C   0  0  0  0  0  0  0  0  0  0  0  0
    8.3635    0.2681    4.8142 N   0  0  0  0  0  0  0  0  0  0  0  0
    7.7309    3.0808    4.7218 O   0  0  0  0  0  0  0  0  0  0  0  0
    9.9435    5.3553    4.9524 N   0  0  0  0  0  0  0  0  0  0  0  0
    7.5484    5.0931    3.5072 O   0  0  0  0  0  0  0  0  0  0  0  0
    6.6333    4.5726    2.5205 C   0  0  2  0  0  0  0  0  0  0  0  0
    6.7498    3.4823    2.4631 H   0  0  0  0  0  0  0  0  0  0  0  0
    7.0868    5.2204    1.1845 C   0  0  2  0  0  0  0  0  0  0  0  0
    7.2099    6.3007    1.3454 H   0  0  0  0  0  0  0  0  0  0  0  0
    6.1005    4.9927    0.0554 C   0  0  0  0  0  0  0  0  0  0  0  0
    4.7280    5.5533    0.4060 C   0  0  2  0  0  0  0  0  0  0  0  0
    4.7947    6.6352    0.5730 H   0  0  0  0  0  0  0  0  0  0  0  0
    4.1560    4.8946    1.6995 C   0  0  1  0  0  0  0  0  0  0  0  0
    3.8891    3.8475    1.5032 H   0  0  0  0  0  0  0  0  0  0  0  0
    5.1751    4.9393    2.8710 C   0  0  1  0  0  0  0  0  0  0  0  0
    5.1623    5.9421    3.3144 H   0  0  0  0  0  0  0  0  0  0  0  0
    4.7068    4.0673    3.9245 O   0  0  0  0  0  0  0  0  0  0  0  0
    2.9759    5.5552    2.2259 O   0  0  0  0  0  0  0  0  0  0  0  0
    1.9184    5.7276    1.2927 C   0  0  2  0  0  0  0  0  0  0  0  0
    2.2685    6.3794    0.4917 H   0  0  0  0  0  0  0  0  0  0  0  0
    0.7411    6.4696    1.9648 C   0  0  1  0  0  0  0  0  0  0  0  0
    1.1010    7.4123    2.3898 H   0  0  0  0  0  0  0  0  0  0  0  0
   -0.3778    6.7077    0.9171 C   0  0  2  0  0  0  0  0  0  0  0  0
   -1.2932    7.0376    1.4254 H   0  0  0  0  0  0  0  0  0  0  0  0
   -0.7197    5.3683    0.1702 C   0  0  1  0  0  0  0  0  0  0  0  0
    0.5609    4.6455   -0.2821 C   0  0  0  0  0  0  0  0  0  0  0  0
    1.4788    4.4655    0.7966 O   0  0  0  0  0  0  0  0  0  0  0  0
   -1.5583    4.4189    1.0327 C   0  0  0  0  0  0  0  0  0  0  0  0
   -1.5002    5.6742   -1.0013 O   0  0  0  0  0  0  0  0  0  0  0  0
   -0.0550    7.7482   -0.1145 N   0  0  0  0  0  0  0  0  0  0  0  0
   -0.0190    9.0949    0.4483 C   0  0  0  0  0  0  0  0  0  0  0  0
    0.2151    5.7336    3.0794 O   0  0  0  0  0  0  0  0  0  0  0  0
    3.8909    5.3618   -0.7963 N   0  0  0  0  0  0  0  0  0  0  0  0
    8.3907    4.6975    0.7497 N   0  0  0  0  0  0  0  0  0  0  0  0
    8.1930    4.9913    7.7641 H   0  0  0  0  0  0  0  0  0  0  0  0
    9.8638    4.6398    7.3772 H   0  0  0  0  0  0  0  0  0  0  0  0
    8.7239    2.4942    7.8907 H   0  0  0  0  0  0  0  0  0  0  0  0
    6.6089    0.8292    5.8146 H   0  0  0  0  0  0  0  0  0  0  0  0
    7.9902    0.4870    6.8550 H   0  0  0  0  0  0  0  0  0  0  0  0
    8.1297    0.7636    3.9529 H   0  0  0  0  0  0  0  0  0  0  0  0
    7.9746   -0.6673    4.7226 H   0  0  0  0  0  0  0  0  0  0  0  0
   10.2181    4.4342    4.6147 H   0  0  0  0  0  0  0  0  0  0  0  0
   10.6597    5.6653    5.6048 H   0  0  0  0  0  0  0  0  0  0  0  0
    6.0246    3.9209   -0.1759 H   0  0  0  0  0  0  0  0  0  0  0  0
    6.4732    5.4858   -0.8544 H   0  0  0  0  0  0  0  0  0  0  0  0
    4.5997    3.1721    3.5511 H   0  0  0  0  0  0  0  0  0  0  0  0
    1.0531    5.1834   -1.1020 H   0  0  0  0  0  0  0  0  0  0  0  0
    0.3220    3.6549   -0.6860 H   0  0  0  0  0  0  0  0  0  0  0  0
   -0.9807    3.9641    1.8427 H   0  0  0  0  0  0  0  0  0  0  0  0
   -1.9680    3.6057    0.4228 H   0  0  0  0  0  0  0  0  0  0  0  0
   -2.4152    4.9417    1.4694 H   0  0  0  0  0  0  0  0  0  0  0  0
   -1.2412    6.5901   -1.2392 H   0  0  0  0  0  0  0  0  0  0  0  0
    0.8456    7.5553   -0.5612 H   0  0  0  0  0  0  0  0  0  0  0  0
   -0.9719    9.3581    0.9174 H   0  0  0  0  0  0  0  0  0  0  0  0
    0.1617    9.8183   -0.3533 H   0  0  0  0  0  0  0  0  0  0  0  0
    0.7861    9.2178    1.1783 H   0  0  0  0  0  0  0  0  0  0  0  0
    0.9170    5.1056    3.3415 H   0  0  0  0  0  0  0  0  0  0  0  0
    3.7544    4.3632   -0.9689 H   0  0  0  0  0  0  0  0  0  0  0  0
    4.3619    5.7320   -1.6222 H   0  0  0  0  0  0  0  0  0  0  0  0
    9.0481    4.8225    1.5258 H   0  0  0  0  0  0  0  0  0  0  0  0
    8.7492    5.2684   -0.0151 H   0  0  0  0  0  0  0  0  0  0  0  0
  1  2  1  0  0  0  0
  1  3  1  1  0  0  0
  1 10  1  0  0  0  0
  1 12  1  0  0  0  0
  3  5  1  0  0  0  0
  3 11  1  0  0  0  0
  3  4  1  1  0  0  0
  5  6  1  0  0  0  0
  5 42  1  0  0  0  0
  5 43  1  0  0  0  0
  6  7  2  0  0  0  0
  6 44  1  0  0  0  0
  7  8  1  0  0  0  0
  7 10  1  0  0  0  0
  8  9  1  0  0  0  0
  8 45  1  0  0  0  0
  8 46  1  0  0  0  0
  9 47  1  0  0  0  0
  9 48  1  0  0  0  0
 11 49  1  0  0  0  0
 11 50  1  0  0  0  0
 13 15  1  6  0  0  0
 13 14  1  0  0  0  0
 13 12  1  0  0  0  0
 15 16  1  1  0  0  0
 15 17  1  0  0  0  0
 15 41  1  0  0  0  0
 17 18  1  0  0  0  0
 17 51  1  0  0  0  0
 17 52  1  0  0  0  0
 18 20  1  1  0  0  0
 18 40  1  0  0  0  0
 18 19  1  0  0  0  0
 20 21  1  0  0  0  0
 20 22  1  1  0  0  0
 20 25  1  0  0  0  0
 22 13  1  6  0  0  0
 22 24  1  0  0  0  0
 22 23  1  0  0  0  0
 24 53  1  0  0  0  0
 26 28  1  1  0  0  0
 26 34  1  0  0  0  0
 26 27  1  0  0  0  0
 26 25  1  0  0  0  0
 28 30  1  6  0  0  0
 28 39  1  0  0  0  0
 28 29  1  0  0  0  0
 30 32  1  6  0  0  0
 30 37  1  0  0  0  0
 30 31  1  0  0  0  0
 32 33  1  0  0  0  0
 32 36  1  6  0  0  0
 32 35  1  0  0  0  0
 33 34  1  0  0  0  0
 33 54  1  0  0  0  0
 33 55  1  0  0  0  0
 35 56  1  0  0  0  0
 35 57  1  0  0  0  0
 35 58  1  0  0  0  0
 36 59  1  0  0  0  0
 37 38  1  0  0  0  0
 37 60  1  0  0  0  0
 38 61  1  0  0  0  0
 38 62  1  0  0  0  0
 38 63  1  0  0  0  0
 39 64  1  0  0  0  0
 40 65  1  0  0  0  0
 40 66  1  0  0  0  0
 41 67  1  0  0  0  0
 41 68  1  0  0  0  0
M  END
$$$$
