1G4Q_MPD_A_25
 OpenBabel10091713573D
Coordinates from PDB:1G4Q:A:25 Model:1 without hydrogens
 22 21  0  0  1  0  0  0  0  0999 V2000
    2.5050    4.2220   35.4970 C   0  0  0  0  0  0  0  0  0  0  0  0
    3.4140    3.4330   34.6280 C   0  0  0  0  0  0  0  0  0  0  0  0
    4.0970    3.8170   33.4550 O   0  0  0  0  0  0  0  0  0  0  0  0
    2.9790    2.1680   34.0870 C   0  0  0  0  0  0  0  0  0  0  0  0
    4.3940    2.8870   35.6370 C   0  0  0  0  0  0  0  0  0  0  0  0
    5.5270    1.9910   35.0640 C   0  0  1  0  0  0  0  0  0  0  0  0
    4.7250    0.9530   34.4730 O   0  0  0  0  0  0  0  0  0  0  0  0
    6.6210    3.0280   34.7370 C   0  0  0  0  0  0  0  0  0  0  0  0
    1.7432    4.6754   34.8978 H   0  0  0  0  0  0  0  0  0  0  0  0
    3.0639    4.9835   35.9996 H   0  0  0  0  0  0  0  0  0  0  0  0
    2.0527    3.5757   36.2200 H   0  0  0  0  0  0  0  0  0  0  0  0
    3.4618    4.1669   32.8108 H   0  0  0  0  0  0  0  0  0  0  0  0
    2.2504    2.3388   33.3223 H   0  0  0  0  0  0  0  0  0  0  0  0
    2.5460    1.5767   34.8666 H   0  0  0  0  0  0  0  0  0  0  0  0
    3.8181    1.6505   33.6710 H   0  0  0  0  0  0  0  0  0  0  0  0
    3.8440    2.3062   36.3476 H   0  0  0  0  0  0  0  0  0  0  0  0
    4.8835    3.7405   36.0576 H   0  0  0  0  0  0  0  0  0  0  0  0
    6.2783    1.3046   35.3946 H   0  0  0  0  0  0  0  0  0  0  0  0
    3.9300    1.3440   34.0780 H   0  0  0  0  0  0  0  0  0  0  0  0
    6.1665    3.9158   34.3494 H   0  0  0  0  0  0  0  0  0  0  0  0
    7.2904    2.6223   34.0075 H   0  0  0  0  0  0  0  0  0  0  0  0
    7.1650    3.2653   35.6273 H   0  0  0  0  0  0  0  0  0  0  0  0
  1  2  1  0  0  0  0
  1  9  1  0  0  0  0
  1 10  1  0  0  0  0
  1 11  1  0  0  0  0
  2  3  1  0  0  0  0
  2  4  1  0  0  0  0
  2  5  1  0  0  0  0
  3 12  1  0  0  0  0
  4 13  1  0  0  0  0
  4 14  1  0  0  0  0
  4 15  1  0  0  0  0
  5  6  1  0  0  0  0
  5 16  1  0  0  0  0
  5 17  1  0  0  0  0
  6  7  1  0  0  0  0
  6  8  1  0  0  0  0
  6 18  1  1  0  0  0
  7 19  1  0  0  0  0
  8 20  1  0  0  0  0
  8 21  1  0  0  0  0
  8 22  1  0  0  0  0
M  END
$$$$
