1MWL_GET_A_45
 OpenBabel03221816523D

 74 76  0  0  1  0  0  0  0  0999 V2000
   -1.3021    5.2761    1.9515 C   0  0  2  0  0  0  0  0  0  0  0  0
   -1.7332    4.9338    2.9008 H   0  0  0  0  0  0  0  0  0  0  0  0
   -2.2703    4.8492    0.9835 O   0  0  0  0  0  0  0  0  0  0  0  0
   -2.0650    5.1718   -0.4118 C   0  0  2  0  0  0  0  0  0  0  0  0
   -2.1659    6.2519   -0.5450 H   0  0  0  0  0  0  0  0  0  0  0  0
   -3.2559    4.4955   -1.1445 C   0  0  2  0  0  0  0  0  0  0  0  0
   -3.2787    3.4316   -0.8712 H   0  0  0  0  0  0  0  0  0  0  0  0
   -3.1703    4.6254   -2.6617 C   0  0  0  0  0  0  0  0  0  0  0  0
   -1.8734    4.0108   -3.1894 C   0  0  1  0  0  0  0  0  0  0  0  0
   -1.8206    2.9490   -2.9216 H   0  0  0  0  0  0  0  0  0  0  0  0
   -1.9080    4.0825   -4.6614 N   0  0  0  0  0  0  0  0  0  0  0  0
   -0.6700    4.7476   -2.5570 C   0  0  1  0  0  0  0  0  0  0  0  0
   -0.6816    5.8051   -2.8542 H   0  0  0  0  0  0  0  0  0  0  0  0
   -0.7206    4.6858   -1.0120 C   0  0  1  0  0  0  0  0  0  0  0  0
   -0.5199    3.6614   -0.6746 H   0  0  0  0  0  0  0  0  0  0  0  0
    0.3904    5.4787   -0.5403 O   0  0  0  0  0  0  0  0  0  0  0  0
    0.6169    4.1990   -2.8913 O   0  0  0  0  0  0  0  0  0  0  0  0
    1.0013    4.3273   -4.2523 C   0  0  2  0  0  0  0  0  0  0  0  0
    0.3739    3.6777   -4.8630 H   0  0  0  0  0  0  0  0  0  0  0  0
    2.4521    3.8167   -4.3611 C   0  0  2  0  0  0  0  0  0  0  0  0
    2.5202    2.8017   -3.9603 H   0  0  0  0  0  0  0  0  0  0  0  0
    3.3399    4.5862   -3.5304 O   0  0  0  0  0  0  0  0  0  0  0  0
    2.9003    3.8831   -5.8379 C   0  0  1  0  0  0  0  0  0  0  0  0
    3.9734    3.6594   -5.9022 H   0  0  0  0  0  0  0  0  0  0  0  0
    2.2095    2.9176   -6.7481 N   0  0  0  0  0  0  0  0  0  0  0  0
    2.2788    1.5243   -6.3324 C   0  0  0  0  0  0  0  0  0  0  0  0
    2.6794    5.3463   -6.3856 C   0  0  2  0  0  0  0  0  0  0  0  0
    2.8730    5.3720   -7.8134 O   0  0  0  0  0  0  0  0  0  0  0  0
    3.6742    6.3616   -5.8090 C   0  0  0  0  0  0  0  0  0  0  0  0
    1.2363    5.8046   -6.0749 C   0  0  0  0  0  0  0  0  0  0  0  0
    0.9188    5.6854   -4.6911 O   0  0  0  0  0  0  0  0  0  0  0  0
   -4.5430    5.0753   -0.7127 N   0  0  0  0  0  0  0  0  0  0  0  0
   -1.1425    6.8306    2.0923 C   0  0  2  0  0  0  0  0  0  0  0  0
   -2.1176    7.2270    2.3998 H   0  0  0  0  0  0  0  0  0  0  0  0
   -0.7738    7.5711    0.8603 N   0  0  0  0  0  0  0  0  0  0  0  0
   -0.0911    7.0961    3.1910 C   0  0  1  0  0  0  0  0  0  0  0  0
    0.1033    8.1751    3.2378 H   0  0  0  0  0  0  0  0  0  0  0  0
   -0.6215    6.7330    4.4663 O   0  0  0  0  0  0  0  0  0  0  0  0
    1.2239    6.3578    2.8856 C   0  0  2  0  0  0  0  0  0  0  0  0
    1.9281    6.4989    3.7119 H   0  0  0  0  0  0  0  0  0  0  0  0
    1.8563    6.9401    1.7313 O   0  0  0  0  0  0  0  0  0  0  0  0
    1.0009    4.8449    2.6441 C   0  0  2  0  0  0  0  0  0  0  0  0
    1.8802    4.4878    2.0906 H   0  0  0  0  0  0  0  0  0  0  0  0
   -0.1023    4.5315    1.7976 O   0  0  0  0  0  0  0  0  0  0  0  0
    0.9568    4.0380    3.9617 C   0  0  2  0  0  0  0  0  0  0  0  0
    0.1567    4.4014    4.6108 H   0  0  0  0  0  0  0  0  0  0  0  0
    2.1900    4.2098    4.6726 O   0  0  0  0  0  0  0  0  0  0  0  0
    0.7305    2.5449    3.7487 C   0  0  0  0  0  0  0  0  0  0  0  0
   -3.2229    5.6860   -2.9519 H   0  0  0  0  0  0  0  0  0  0  0  0
   -4.0341    4.1322   -3.1273 H   0  0  0  0  0  0  0  0  0  0  0  0
   -1.8515    5.0592   -4.9568 H   0  0  0  0  0  0  0  0  0  0  0  0
   -2.8002    3.7305   -5.0076 H   0  0  0  0  0  0  0  0  0  0  0  0
    0.5660    6.1770   -1.1927 H   0  0  0  0  0  0  0  0  0  0  0  0
    2.8013    4.8671   -2.7630 H   0  0  0  0  0  0  0  0  0  0  0  0
    1.2294    3.1783   -6.8721 H   0  0  0  0  0  0  0  0  0  0  0  0
    3.3113    1.1678   -6.3265 H   0  0  0  0  0  0  0  0  0  0  0  0
    1.7181    0.9102   -7.0465 H   0  0  0  0  0  0  0  0  0  0  0  0
    1.8265    1.3477   -5.3520 H   0  0  0  0  0  0  0  0  0  0  0  0
    3.4079    4.5851   -8.0322 H   0  0  0  0  0  0  0  0  0  0  0  0
    4.6961    5.9701   -5.8364 H   0  0  0  0  0  0  0  0  0  0  0  0
    3.4380    6.6549   -4.7819 H   0  0  0  0  0  0  0  0  0  0  0  0
    3.6832    7.2768   -6.4115 H   0  0  0  0  0  0  0  0  0  0  0  0
    0.5038    5.2546   -6.6745 H   0  0  0  0  0  0  0  0  0  0  0  0
    1.1107    6.8589   -6.3633 H   0  0  0  0  0  0  0  0  0  0  0  0
   -4.5350    5.0967    0.3098 H   0  0  0  0  0  0  0  0  0  0  0  0
   -5.3085    4.4585   -0.9808 H   0  0  0  0  0  0  0  0  0  0  0  0
    0.1174    7.1549    0.5501 H   0  0  0  0  0  0  0  0  0  0  0  0
   -0.5909    8.5475    1.0708 H   0  0  0  0  0  0  0  0  0  0  0  0
    0.0930    6.8007    5.1259 H   0  0  0  0  0  0  0  0  0  0  0  0
    2.0198    7.8799    1.9172 H   0  0  0  0  0  0  0  0  0  0  0  0
    2.8875    3.7666    4.1531 H   0  0  0  0  0  0  0  0  0  0  0  0
    1.5156    2.1114    3.1199 H   0  0  0  0  0  0  0  0  0  0  0  0
   -0.2415    2.3450    3.2891 H   0  0  0  0  0  0  0  0  0  0  0  0
    0.7726    2.0181    4.7091 H   0  0  0  0  0  0  0  0  0  0  0  0
  1 44  1  0  0  0  0
  1  3  1  0  0  0  0
  1  2  1  1  0  0  0
  4  6  1  6  0  0  0
  4  5  1  0  0  0  0
  4  3  1  0  0  0  0
  6  7  1  1  0  0  0
  6  8  1  0  0  0  0
  6 32  1  0  0  0  0
  8  9  1  0  0  0  0
  8 49  1  0  0  0  0
  8 50  1  0  0  0  0
  9 12  1  1  0  0  0
  9 11  1  0  0  0  0
  9 10  1  0  0  0  0
 11 51  1  0  0  0  0
 11 52  1  0  0  0  0
 12 13  1  0  0  0  0
 12 14  1  1  0  0  0
 12 17  1  0  0  0  0
 14  4  1  1  0  0  0
 14 16  1  0  0  0  0
 14 15  1  0  0  0  0
 16 53  1  0  0  0  0
 18 20  1  6  0  0  0
 18 31  1  0  0  0  0
 18 19  1  0  0  0  0
 18 17  1  0  0  0  0
 20 23  1  6  0  0  0
 20 22  1  0  0  0  0
 20 21  1  0  0  0  0
 22 54  1  0  0  0  0
 23 27  1  6  0  0  0
 23 25  1  0  0  0  0
 23 24  1  0  0  0  0
 25 26  1  0  0  0  0
 25 55  1  0  0  0  0
 26 56  1  0  0  0  0
 26 57  1  0  0  0  0
 26 58  1  0  0  0  0
 27 28  1  6  0  0  0
 27 29  1  0  0  0  0
 27 30  1  0  0  0  0
 28 59  1  0  0  0  0
 29 60  1  0  0  0  0
 29 61  1  0  0  0  0
 29 62  1  0  0  0  0
 30 31  1  0  0  0  0
 30 63  1  0  0  0  0
 30 64  1  0  0  0  0
 32 65  1  0  0  0  0
 32 66  1  0  0  0  0
 33  1  1  6  0  0  0
 33 35  1  0  0  0  0
 33 34  1  0  0  0  0
 35 67  1  0  0  0  0
 35 68  1  0  0  0  0
 36 33  1  6  0  0  0
 36 38  1  0  0  0  0
 36 37  1  0  0  0  0
 38 69  1  0  0  0  0
 39 36  1  1  0  0  0
 39 40  1  0  0  0  0
 39 41  1  0  0  0  0
 41 70  1  0  0  0  0
 42 39  1  1  0  0  0
 42 44  1  0  0  0  0
 42 45  1  0  0  0  0
 42 43  1  0  0  0  0
 45 48  1  0  0  0  0
 45 47  1  0  0  0  0
 45 46  1  1  0  0  0
 47 71  1  0  0  0  0
 48 72  1  0  0  0  0
 48 73  1  0  0  0  0
 48 74  1  0  0  0  0
M  END
$$$$
