3OWW_GLY_A_89
 OpenBabel10091713573D
Coordinates from PDB:3OWW:A:89 Model:1 without hydrogens
 10  9  0  0  0  0  0  0  0  0999 V2000
   -2.0330  -48.1460   11.0780 N   0  0  0  0  0  0  0  0  0  0  0  0
   -2.4200  -46.7170   11.2220 C   0  0  0  0  0  0  0  0  0  0  0  0
   -2.7990  -46.3660   12.6460 C   0  0  0  0  0  0  0  0  0  0  0  0
   -2.4190  -47.0460   13.6030 O   0  0  0  0  0  0  0  0  0  0  0  0
   -3.5060  -45.3850   12.8790 O   0  0  0  0  0  0  0  0  0  0  0  0
   -1.7869  -48.3354   10.1064 H   0  0  0  0  0  0  0  0  0  0  0  0
   -2.8158  -48.7396   11.3524 H   0  0  0  0  0  0  0  0  0  0  0  0
   -3.2569  -46.5210   10.5847 H   0  0  0  0  0  0  0  0  0  0  0  0
   -1.5748  -46.1195   10.9509 H   0  0  0  0  0  0  0  0  0  0  0  0
   -3.8105  -44.8488   12.1735 H   0  0  0  0  0  0  0  0  0  0  0  0
  1  2  1  0  0  0  0
  1  6  1  0  0  0  0
  1  7  1  0  0  0  0
  2  3  1  0  0  0  0
  2  8  1  0  0  0  0
  2  9  1  0  0  0  0
  3  4  2  0  0  0  0
  3  5  1  0  0  0  0
  5 10  1  0  0  0  0
M  END
$$$$
