ligand.pdb
 OpenBabel03221817293D

 24 23  0  0  1  0  0  0  0  0999 V2000
    1.0392   -0.1237   -0.2438 N   0  0  0  0  0  0  0  0  0  0  0  0
    2.5018   -0.1241   -0.0450 C   0  0  2  0  0  0  0  0  0  0  0  0
    2.9790   -0.4887   -0.9619 H   0  0  0  0  0  0  0  0  0  0  0  0
    2.8479   -1.0834    1.1095 C   0  0  0  0  0  0  0  0  0  0  0  0
    2.9202   -0.7707    2.2870 O   0  0  0  0  0  0  0  0  0  0  0  0
    2.9801   -2.3689    0.6941 O   0  0  0  0  0  0  0  0  0  0  0  0
    2.9987    1.3040    0.2231 C   0  0  0  0  0  0  0  0  0  0  0  0
    4.5296    1.3780    0.2804 C   0  0  0  0  0  0  0  0  0  0  0  0
    5.0197    2.8111    0.4991 C   0  0  0  0  0  0  0  0  0  0  0  0
    6.5456    2.8581    0.5770 C   0  0  0  0  0  0  0  0  0  0  0  0
    7.0047    4.2248    0.7868 N   0  0  0  0  0  0  0  0  0  0  0  0
    0.6031    0.2847    0.5884 H   0  0  0  0  0  0  0  0  0  0  0  0
    0.6840   -1.0789   -0.2831 H   0  0  0  0  0  0  0  0  0  0  0  0
    2.8636   -2.4808   -0.2689 H   0  0  0  0  0  0  0  0  0  0  0  0
    2.5801    1.6866    1.1627 H   0  0  0  0  0  0  0  0  0  0  0  0
    2.6439    1.9670   -0.5772 H   0  0  0  0  0  0  0  0  0  0  0  0
    4.9498    0.9877   -0.6546 H   0  0  0  0  0  0  0  0  0  0  0  0
    4.9052    0.7437    1.0915 H   0  0  0  0  0  0  0  0  0  0  0  0
    4.5879    3.2089    1.4262 H   0  0  0  0  0  0  0  0  0  0  0  0
    4.6669    3.4478   -0.3220 H   0  0  0  0  0  0  0  0  0  0  0  0
    6.9836    2.4663   -0.3477 H   0  0  0  0  0  0  0  0  0  0  0  0
    6.8989    2.2322    1.4036 H   0  0  0  0  0  0  0  0  0  0  0  0
    6.7136    4.8113    0.0065 H   0  0  0  0  0  0  0  0  0  0  0  0
    8.0237    4.2420    0.7950 H   0  0  0  0  0  0  0  0  0  0  0  0
  1 12  1  0  0  0  0
  1 13  1  0  0  0  0
  2  4  1  0  0  0  0
  2  7  1  0  0  0  0
  2  3  1  6  0  0  0
  2  1  1  0  0  0  0
  4  5  2  0  0  0  0
  4  6  1  0  0  0  0
  6 14  1  0  0  0  0
  7  8  1  0  0  0  0
  7 15  1  0  0  0  0
  7 16  1  0  0  0  0
  8  9  1  0  0  0  0
  8 17  1  0  0  0  0
  8 18  1  0  0  0  0
  9 10  1  0  0  0  0
  9 19  1  0  0  0  0
  9 20  1  0  0  0  0
 10 11  1  0  0  0  0
 10 21  1  0  0  0  0
 10 22  1  0  0  0  0
 11 23  1  0  0  0  0
 11 24  1  0  0  0  0
M  END
$$$$
