3LA5_5AZ_A_84
 OpenBabel10091713573D
Coordinates from PDB:3LA5:A:84 Model:1 without hydrogens
 12 12  0  0  0  0  0  0  0  0999 V2000
   11.0480   13.1520    0.6290 C   0  0  0  0  0  0  0  0  0  0  0  0
   11.0290   12.4190    1.7420 N   0  0  0  0  0  0  0  0  0  0  0  0
   10.4680   11.2070    1.7260 C   0  0  0  0  0  0  0  0  0  0  0  0
    9.9350   10.7180    0.5820 N   0  0  0  0  0  0  0  0  0  0  0  0
    9.9550   11.4690   -0.5320 C   0  0  0  0  0  0  0  0  0  0  0  0
   10.5160   12.6880   -0.5140 N   0  0  0  0  0  0  0  0  0  0  0  0
   10.4620   10.4230    2.9790 N   0  0  0  0  0  0  0  0  0  0  0  0
   11.6260   14.3740    0.6840 O   0  0  0  0  0  0  0  0  0  0  0  0
   11.4265   12.7692    2.5718 H   0  0  0  0  0  0  0  0  0  0  0  0
    9.5378   11.1074   -1.4039 H   0  0  0  0  0  0  0  0  0  0  0  0
   10.8561   10.8011    3.7981 H   0  0  0  0  0  0  0  0  0  0  0  0
   10.0639    9.5227    2.9945 H   0  0  0  0  0  0  0  0  0  0  0  0
  1  2  1  0  0  0  0
  1  6  1  0  0  0  0
  1  8  2  0  0  0  0
  2  3  1  0  0  0  0
  2  9  1  0  0  0  0
  3  4  2  0  0  0  0
  3  7  1  0  0  0  0
  4  5  1  0  0  0  0
  5  6  2  0  0  0  0
  5 10  1  0  0  0  0
  7 11  1  0  0  0  0
  7 12  1  0  0  0  0
M  END
$$$$
