3DVV_RIO_A_27
 OpenBabel03221817303D

 65 67  0  0  1  0  0  0  0  0999 V2000
    2.9360    5.3805    8.8664 O   0  0  0  0  0  0  0  0  0  0  0  0
    1.8296    4.5575    8.5101 C   0  0  0  0  0  0  0  0  0  0  0  0
    1.0570    5.1666    7.3326 C   0  0  1  0  0  0  0  0  0  0  0  0
    0.7998    6.2041    7.5843 H   0  0  0  0  0  0  0  0  0  0  0  0
    1.8334    5.1722    6.1120 O   0  0  0  0  0  0  0  0  0  0  0  0
    0.8785    5.3820    5.0482 C   0  0  1  0  0  0  0  0  0  0  0  0
    0.7801    6.4580    4.8750 H   0  0  0  0  0  0  0  0  0  0  0  0
    1.2377    4.7100    3.8395 O   0  0  0  0  0  0  0  0  0  0  0  0
    2.2749    5.2732    2.9906 C   0  0  2  0  0  0  0  0  0  0  0  0
    2.4163    4.4659    2.2823 H   0  0  0  0  0  0  0  0  0  0  0  0
    3.6427    5.3283    3.6860 C   0  0  1  0  0  0  0  0  0  0  0  0
    3.6105    5.9131    4.6073 H   0  0  0  0  0  0  0  0  0  0  0  0
    4.0316    3.9883    4.0457 O   0  0  0  0  0  0  0  0  0  0  0  0
    4.6993    5.8984    2.7244 C   0  0  2  0  0  0  0  0  0  0  0  0
    4.7142    5.3003    1.8015 H   0  0  0  0  0  0  0  0  0  0  0  0
    6.0555    5.8175    3.2758 N   0  0  0  0  0  0  0  0  0  0  0  0
    4.3339    7.3462    2.3933 C   0  0  0  0  0  0  0  0  0  0  0  0
    3.0596    7.3514    1.5498 C   0  0  2  0  0  0  0  0  0  0  0  0
    3.3804    6.9185    0.6048 H   0  0  0  0  0  0  0  0  0  0  0  0
    2.6571    8.7249    1.2132 N   0  0  0  0  0  0  0  0  0  0  0  0
    1.8549    6.5296    2.1513 C   0  0  1  0  0  0  0  0  0  0  0  0
    1.3184    7.1977    2.8391 H   0  0  0  0  0  0  0  0  0  0  0  0
    0.8516    6.2117    1.1180 O   0  0  0  0  0  0  0  0  0  0  0  0
    1.3411    5.4965   -0.0348 C   0  0  1  0  0  0  0  0  0  0  0  0
    2.2476    5.9590   -0.4136 H   0  0  0  0  0  0  0  0  0  0  0  0
    1.6791    4.1558    0.3056 O   0  0  0  0  0  0  0  0  0  0  0  0
    0.5370    3.3868    0.7020 C   0  0  2  0  0  0  0  0  0  0  0  0
   -0.0268    3.9086    1.4884 H   0  0  0  0  0  0  0  0  0  0  0  0
    1.0863    2.0842    1.3138 C   0  0  0  0  0  0  0  0  0  0  0  0
    0.0605    1.1559    1.7830 N   0  0  0  0  0  0  0  0  0  0  0  0
   -0.3659    3.1807   -0.5191 C   0  0  1  0  0  0  0  0  0  0  0  0
    0.1699    2.6162   -1.2928 H   0  0  0  0  0  0  0  0  0  0  0  0
   -1.5719    2.4677   -0.2160 O   0  0  0  0  0  0  0  0  0  0  0  0
   -0.7900    4.5465   -1.0847 C   0  0  2  0  0  0  0  0  0  0  0  0
   -1.5370    5.0055   -0.4265 H   0  0  0  0  0  0  0  0  0  0  0  0
   -1.4408    4.3457   -2.3567 O   0  0  0  0  0  0  0  0  0  0  0  0
    0.4083    5.4856   -1.2792 C   0  0  1  0  0  0  0  0  0  0  0  0
    0.9992    5.0556   -2.1010 H   0  0  0  0  0  0  0  0  0  0  0  0
   -0.0056    6.8228   -1.7607 N   0  0  0  0  0  0  0  0  0  0  0  0
   -0.4678    4.7904    5.5549 C   0  0  2  0  0  0  0  0  0  0  0  0
   -0.8225    3.9494    4.9602 H   0  0  0  0  0  0  0  0  0  0  0  0
   -1.5153    5.7750    5.5874 O   0  0  0  0  0  0  0  0  0  0  0  0
   -0.1739    4.3464    6.9842 C   0  0  2  0  0  0  0  0  0  0  0  0
    0.0755    3.2771    6.9946 H   0  0  0  0  0  0  0  0  0  0  0  0
   -1.2563    4.5570    7.8752 O   0  0  0  0  0  0  0  0  0  0  0  0
    3.5122    5.4371    8.0823 H   0  0  0  0  0  0  0  0  0  0  0  0
    1.1835    4.4640    9.3936 H   0  0  0  0  0  0  0  0  0  0  0  0
    2.2166    3.5638    8.2602 H   0  0  0  0  0  0  0  0  0  0  0  0
    3.2262    3.5553    4.3866 H   0  0  0  0  0  0  0  0  0  0  0  0
    6.2104    4.8328    3.5192 H   0  0  0  0  0  0  0  0  0  0  0  0
    6.0982    6.3082    4.1700 H   0  0  0  0  0  0  0  0  0  0  0  0
    5.1443    7.8164    1.8209 H   0  0  0  0  0  0  0  0  0  0  0  0
    4.2002    7.9369    3.3076 H   0  0  0  0  0  0  0  0  0  0  0  0
    3.4036    9.1831    0.6875 H   0  0  0  0  0  0  0  0  0  0  0  0
    2.5176    9.2827    2.0520 H   0  0  0  0  0  0  0  0  0  0  0  0
    1.7373    2.3357    2.1652 H   0  0  0  0  0  0  0  0  0  0  0  0
    1.7443    1.5874    0.5893 H   0  0  0  0  0  0  0  0  0  0  0  0
   -0.3418    1.5222    2.6492 H   0  0  0  0  0  0  0  0  0  0  0  0
    0.5350    0.2939    2.0703 H   0  0  0  0  0  0  0  0  0  0  0  0
   -1.3667    1.8745    0.5374 H   0  0  0  0  0  0  0  0  0  0  0  0
   -1.9333    3.5054   -2.2656 H   0  0  0  0  0  0  0  0  0  0  0  0
   -0.5190    7.2951   -1.0163 H   0  0  0  0  0  0  0  0  0  0  0  0
   -0.6779    6.6704   -2.5156 H   0  0  0  0  0  0  0  0  0  0  0  0
   -1.7792    5.9316    4.6606 H   0  0  0  0  0  0  0  0  0  0  0  0
   -1.8606    5.1868    7.4264 H   0  0  0  0  0  0  0  0  0  0  0  0
  1  2  1  0  0  0  0
  1 46  1  0  0  0  0
  2  3  1  0  0  0  0
  2 47  1  0  0  0  0
  2 48  1  0  0  0  0
  3  4  1  0  0  0  0
  3  5  1  0  0  0  0
  3 43  1  6  0  0  0
  5  6  1  0  0  0  0
  6 40  1  1  0  0  0
  6  8  1  0  0  0  0
  6  7  1  0  0  0  0
  9 11  1  1  0  0  0
  9 10  1  0  0  0  0
  9  8  1  0  0  0  0
 11 12  1  0  0  0  0
 11 13  1  0  0  0  0
 11 14  1  6  0  0  0
 13 49  1  0  0  0  0
 14 15  1  6  0  0  0
 14 16  1  0  0  0  0
 14 17  1  0  0  0  0
 16 50  1  0  0  0  0
 16 51  1  0  0  0  0
 17 18  1  0  0  0  0
 17 52  1  0  0  0  0
 17 53  1  0  0  0  0
 18 19  1  0  0  0  0
 18 20  1  0  0  0  0
 18 21  1  1  0  0  0
 20 54  1  0  0  0  0
 20 55  1  0  0  0  0
 21  9  1  1  0  0  0
 21 23  1  0  0  0  0
 21 22  1  0  0  0  0
 23 24  1  0  0  0  0
 24 25  1  0  0  0  0
 24 26  1  0  0  0  0
 24 37  1  6  0  0  0
 26 27  1  0  0  0  0
 27 28  1  0  0  0  0
 27 29  1  0  0  0  0
 27 31  1  6  0  0  0
 29 30  1  0  0  0  0
 29 56  1  0  0  0  0
 29 57  1  0  0  0  0
 30 58  1  0  0  0  0
 30 59  1  0  0  0  0
 31 33  1  0  0  0  0
 31 32  1  6  0  0  0
 33 60  1  0  0  0  0
 34 31  1  1  0  0  0
 34 35  1  0  0  0  0
 34 36  1  0  0  0  0
 36 61  1  0  0  0  0
 37 34  1  1  0  0  0
 37 39  1  0  0  0  0
 37 38  1  0  0  0  0
 39 62  1  0  0  0  0
 39 63  1  0  0  0  0
 40 41  1  0  0  0  0
 40 42  1  0  0  0  0
 40 43  1  1  0  0  0
 42 64  1  0  0  0  0
 43 44  1  6  0  0  0
 43 45  1  0  0  0  0
 45 65  1  0  0  0  0
M  END
$$$$
