1P9X_TEL_0_2881
 OpenBabel10091713573D
Coordinates from PDB:1P9X:0:2881 Model:1 without hydrogens
123127  0  0  1  0  0  0  0  0999 V2000
   39.0120  130.5070  124.4340 C   0  0  0  0  0  0  0  0  0  0  0  0
   40.1230  131.0490  125.4040 C   0  0  2  0  0  0  0  0  0  0  0  0
   40.7430  132.4280  124.7900 C   0  0  2  0  0  0  0  0  0  0  0  0
   41.1020  129.7570  125.7750 C   0  0  1  0  0  0  0  0  0  0  0  0
   39.5350  131.5880  126.6620 O   0  0  0  0  0  0  0  0  0  0  0  0
   39.4620  133.2400  125.0130 N   0  0  0  0  0  0  0  0  0  0  0  0
   41.4200  132.4060  123.2800 C   0  0  1  0  0  0  0  0  0  0  0  0
   40.2890  128.4820  126.3720 C   0  0  0  0  0  0  0  0  0  0  0  0
   41.8210  129.0780  124.6540 O   0  0  0  0  0  0  0  0  0  0  0  0
   39.3430  132.9680  126.3930 C   0  0  0  0  0  0  0  0  0  0  0  0
   39.2430  134.7280  124.6520 C   0  0  0  0  0  0  0  0  0  0  0  0
   41.9860  133.8030  122.8150 C   0  0  0  0  0  0  0  0  0  0  0  0
   42.6630  131.5280  123.0970 C   0  0  0  0  0  0  0  0  0  0  0  0
   39.3790  128.7000  127.6090 C   0  0  0  0  0  0  0  0  0  0  0  0
   42.9700  128.2750  125.2120 C   0  0  0  0  0  0  0  0  0  0  0  0
   39.1200  133.8130  127.2830 O   0  0  0  0  0  0  0  0  0  0  0  0
   38.5420  135.0360  123.2870 C   0  0  0  0  0  0  0  0  0  0  0  0
   43.5730  131.5600  123.9530 O   0  0  0  0  0  0  0  0  0  0  0  0
   42.8180  130.6460  121.8290 C   0  0  2  0  0  0  0  0  0  0  0  0
   43.5270  128.6380  126.2720 O   0  0  0  0  0  0  0  0  0  0  0  0
   43.5150  126.9490  124.5760 C   0  0  1  0  0  0  0  0  0  0  0  0
   38.4170  136.5850  123.1950 C   0  0  0  0  0  0  0  0  0  0  0  0
   41.4460  129.8800  121.5920 C   0  0  0  0  0  0  0  0  0  0  0  0
   44.0870  129.6610  122.0330 C   0  0  0  0  0  0  0  0  0  0  0  0
   42.5390  126.3400  123.5520 C   0  0  0  0  0  0  0  0  0  0  0  0
   45.0030  127.0090  124.0040 C   0  0  0  0  0  0  0  0  0  0  0  0
   37.7870  137.1090  121.8640 C   0  0  0  0  0  0  0  0  0  0  0  0
   44.6900  128.6500  120.8930 C   0  0  2  0  0  0  0  0  0  0  0  0
   45.8800  127.4860  124.7570 O   0  0  0  0  0  0  0  0  0  0  0  0
   45.4910  126.4790  122.5710 C   0  0  1  0  0  0  0  0  0  0  0  0
   36.8180  138.2300  122.1250 N   0  0  0  0  0  0  0  0  0  0  0  0
   45.3810  129.4340  119.8070 O   0  0  0  0  0  0  0  0  0  0  0  0
   43.5770  127.7160  120.2520 C   0  0  0  0  0  0  0  0  0  0  0  0
   45.8900  127.6210  121.3450 C   0  0  1  0  0  0  0  0  0  0  0  0
   46.6620  125.5610  122.9620 C   0  0  0  0  0  0  0  0  0  0  0  0
   35.5090  138.2110  121.5900 C   0  0  0  0  0  0  0  0  0  0  0  0
   36.9560  139.4610  122.8690 C   0  0  0  0  0  0  0  0  0  0  0  0
   44.6060  130.1780  118.8380 C   0  0  0  0  0  0  0  0  0  0  0  0
   46.0740  127.1600  119.9390 O   0  0  0  0  0  0  0  0  0  0  0  0
   34.9140  139.3410  121.9900 C   0  0  0  0  0  0  0  0  0  0  0  0
   35.8280  140.1060  122.7830 N   0  0  0  0  0  0  0  0  0  0  0  0
   47.0670  126.2920  119.4100 C   0  0  1  0  0  0  0  0  0  0  0  0
   33.4950  139.6950  121.6280 C   0  0  0  0  0  0  0  0  0  0  0  0
   46.4460  125.0230  118.7750 C   0  0  2  0  0  0  0  0  0  0  0  0
   47.7670  127.0640  118.4070 O   0  0  0  0  0  0  0  0  0  0  0  0
   32.9160  140.8600  122.0570 C   0  0  0  0  0  0  0  0  0  0  0  0
   32.6620  138.7670  120.7760 C   0  0  0  0  0  0  0  0  0  0  0  0
   45.7610  124.3020  119.8030 O   0  0  0  0  0  0  0  0  0  0  0  0
   47.6340  124.1630  118.0880 C   0  0  1  0  0  0  0  0  0  0  0  0
   48.8240  126.3540  117.7430 C   0  0  1  0  0  0  0  0  0  0  0  0
   31.5020  141.1670  121.6740 C   0  0  0  0  0  0  0  0  0  0  0  0
   31.4300  139.0680  120.4600 N   0  0  0  0  0  0  0  0  0  0  0  0
   47.1620  122.8750  117.3670 N   0  0  0  0  0  0  0  0  0  0  0  0
   48.3010  125.0830  117.0380 C   0  0  0  0  0  0  0  0  0  0  0  0
   49.4840  127.2810  116.7140 C   0  0  0  0  0  0  0  0  0  0  0  0
   30.8100  140.2850  120.9030 C   0  0  0  0  0  0  0  0  0  0  0  0
   48.2940  122.1670  116.7370 C   0  0  0  0  0  0  0  0  0  0  0  0
   46.5320  121.8910  118.2460 C   0  0  0  0  0  0  0  0  0  0  0  0
   39.4694  130.1289  123.5437 H   0  0  0  0  0  0  0  0  0  0  0  0
   38.3412  131.3012  124.1807 H   0  0  0  0  0  0  0  0  0  0  0  0
   38.4688  129.7218  124.9171 H   0  0  0  0  0  0  0  0  0  0  0  0
   41.6471  132.7964  125.2280 H   0  0  0  0  0  0  0  0  0  0  0  0
   41.7695  130.2638  126.4402 H   0  0  0  0  0  0  0  0  0  0  0  0
   40.5774  132.0448  122.7282 H   0  0  0  0  0  0  0  0  0  0  0  0
   41.0139  127.7417  126.6393 H   0  0  0  0  0  0  0  0  0  0  0  0
   39.6096  128.2141  125.5900 H   0  0  0  0  0  0  0  0  0  0  0  0
   40.2031  135.1999  124.6347 H   0  0  0  0  0  0  0  0  0  0  0  0
   38.5701  135.0971  125.3976 H   0  0  0  0  0  0  0  0  0  0  0  0
   42.8215  134.0711  123.4274 H   0  0  0  0  0  0  0  0  0  0  0  0
   41.2221  134.5464  122.9086 H   0  0  0  0  0  0  0  0  0  0  0  0
   42.2984  133.7392  121.7936 H   0  0  0  0  0  0  0  0  0  0  0  0
   39.9804  128.9748  128.4502 H   0  0  0  0  0  0  0  0  0  0  0  0
   38.8518  127.7950  127.8279 H   0  0  0  0  0  0  0  0  0  0  0  0
   38.6770  129.4806  127.4022 H   0  0  0  0  0  0  0  0  0  0  0  0
   37.5724  134.5844  123.2591 H   0  0  0  0  0  0  0  0  0  0  0  0
   39.1042  134.6433  122.4656 H   0  0  0  0  0  0  0  0  0  0  0  0
   43.0167  131.2238  120.9506 H   0  0  0  0  0  0  0  0  0  0  0  0
   43.5807  126.2874  125.4144 H   0  0  0  0  0  0  0  0  0  0  0  0
   39.3967  137.0050  123.2886 H   0  0  0  0  0  0  0  0  0  0  0  0
   37.7556  136.8831  123.9815 H   0  0  0  0  0  0  0  0  0  0  0  0
   41.2139  129.2892  122.4534 H   0  0  0  0  0  0  0  0  0  0  0  0
   41.5360  129.2434  120.7367 H   0  0  0  0  0  0  0  0  0  0  0  0
   40.6642  130.5916  121.4263 H   0  0  0  0  0  0  0  0  0  0  0  0
   43.8305  129.0346  122.8617 H   0  0  0  0  0  0  0  0  0  0  0  0
   44.8786  130.3786  122.0900 H   0  0  0  0  0  0  0  0  0  0  0  0
   42.4601  126.9889  122.7049 H   0  0  0  0  0  0  0  0  0  0  0  0
   41.5757  126.2235  124.0030 H   0  0  0  0  0  0  0  0  0  0  0  0
   42.9031  125.3845  123.2368 H   0  0  0  0  0  0  0  0  0  0  0  0
   37.2697  136.3055  121.3827 H   0  0  0  0  0  0  0  0  0  0  0  0
   38.5732  137.4792  121.2398 H   0  0  0  0  0  0  0  0  0  0  0  0
   44.6781  126.0106  122.0565 H   0  0  0  0  0  0  0  0  0  0  0  0
   42.7517  128.3152  119.9284 H   0  0  0  0  0  0  0  0  0  0  0  0
   43.2404  127.0097  120.9819 H   0  0  0  0  0  0  0  0  0  0  0  0
   43.9890  127.1938  119.4138 H   0  0  0  0  0  0  0  0  0  0  0  0
   46.7535  127.9779  121.8664 H   0  0  0  0  0  0  0  0  0  0  0  0
   47.4112  126.1341  123.4672 H   0  0  0  0  0  0  0  0  0  0  0  0
   47.0818  125.1233  122.0805 H   0  0  0  0  0  0  0  0  0  0  0  0
   46.3074  124.7871  123.6103 H   0  0  0  0  0  0  0  0  0  0  0  0
   35.0933  137.4696  121.0047 H   0  0  0  0  0  0  0  0  0  0  0  0
   37.7980  139.7732  123.3776 H   0  0  0  0  0  0  0  0  0  0  0  0
   45.2664  130.6661  118.1520 H   0  0  0  0  0  0  0  0  0  0  0  0
   44.0116  130.9104  119.3432 H   0  0  0  0  0  0  0  0  0  0  0  0
   43.9668  129.5078  118.3021 H   0  0  0  0  0  0  0  0  0  0  0  0
   47.7195  125.9473  120.1848 H   0  0  0  0  0  0  0  0  0  0  0  0
   45.7348  125.2572  118.0107 H   0  0  0  0  0  0  0  0  0  0  0  0
   33.4513  141.5218  122.6405 H   0  0  0  0  0  0  0  0  0  0  0  0
   33.0717  137.8820  120.4383 H   0  0  0  0  0  0  0  0  0  0  0  0
   46.3850  124.0767  120.5106 H   0  0  0  0  0  0  0  0  0  0  0  0
   48.2924  123.8436  118.8686 H   0  0  0  0  0  0  0  0  0  0  0  0
   49.5378  126.0485  118.4793 H   0  0  0  0  0  0  0  0  0  0  0  0
   31.0553  142.0411  121.9923 H   0  0  0  0  0  0  0  0  0  0  0  0
   47.5835  125.3557  116.2925 H   0  0  0  0  0  0  0  0  0  0  0  0
   49.1143  124.5681  116.5708 H   0  0  0  0  0  0  0  0  0  0  0  0
   48.7593  127.5780  115.9850 H   0  0  0  0  0  0  0  0  0  0  0  0
   50.2854  126.7632  116.2298 H   0  0  0  0  0  0  0  0  0  0  0  0
   49.8676  128.1483  117.2096 H   0  0  0  0  0  0  0  0  0  0  0  0
   29.8350  140.4917  120.6354 H   0  0  0  0  0  0  0  0  0  0  0  0
   48.8063  122.8324  116.0739 H   0  0  0  0  0  0  0  0  0  0  0  0
   47.9268  121.3267  116.1856 H   0  0  0  0  0  0  0  0  0  0  0  0
   48.9694  121.8287  117.4949 H   0  0  0  0  0  0  0  0  0  0  0  0
   45.6954  122.3385  118.7406 H   0  0  0  0  0  0  0  0  0  0  0  0
   47.2411  121.5582  118.9749 H   0  0  0  0  0  0  0  0  0  0  0  0
   46.1985  121.0562  117.6657 H   0  0  0  0  0  0  0  0  0  0  0  0
  1 59  1  0  0  0  0
  1 60  1  0  0  0  0
  1 61  1  0  0  0  0
  2  1  1  6  0  0  0
  2  3  1  0  0  0  0
  2  4  1  0  0  0  0
  2  5  1  0  0  0  0
  3  6  1  0  0  0  0
  3  7  1  0  0  0  0
  3 62  1  1  0  0  0
  4  8  1  0  0  0  0
  4  9  1  0  0  0  0
  4 63  1  1  0  0  0
  5 10  1  0  0  0  0
  6 10  1  0  0  0  0
  6 11  1  0  0  0  0
  7 12  1  0  0  0  0
  7 13  1  0  0  0  0
  7 64  1  6  0  0  0
  8 14  1  0  0  0  0
  8 65  1  0  0  0  0
  8 66  1  0  0  0  0
  9 15  1  0  0  0  0
 10 16  2  0  0  0  0
 11 17  1  0  0  0  0
 11 67  1  0  0  0  0
 11 68  1  0  0  0  0
 12 69  1  0  0  0  0
 12 70  1  0  0  0  0
 12 71  1  0  0  0  0
 13 18  2  0  0  0  0
 13 19  1  0  0  0  0
 14 72  1  0  0  0  0
 14 73  1  0  0  0  0
 14 74  1  0  0  0  0
 15 20  2  0  0  0  0
 15 21  1  0  0  0  0
 17 22  1  0  0  0  0
 17 75  1  0  0  0  0
 17 76  1  0  0  0  0
 19 23  1  0  0  0  0
 19 24  1  0  0  0  0
 19 77  1  6  0  0  0
 21 25  1  0  0  0  0
 21 26  1  0  0  0  0
 21 78  1  1  0  0  0
 22 27  1  0  0  0  0
 22 79  1  0  0  0  0
 22 80  1  0  0  0  0
 23 81  1  0  0  0  0
 23 82  1  0  0  0  0
 23 83  1  0  0  0  0
 24 28  1  0  0  0  0
 24 84  1  0  0  0  0
 24 85  1  0  0  0  0
 25 86  1  0  0  0  0
 25 87  1  0  0  0  0
 25 88  1  0  0  0  0
 26 29  2  0  0  0  0
 26 30  1  0  0  0  0
 27 31  1  0  0  0  0
 27 89  1  0  0  0  0
 27 90  1  0  0  0  0
 28 32  1  6  0  0  0
 28 33  1  0  0  0  0
 28 34  1  0  0  0  0
 30 34  1  0  0  0  0
 30 35  1  0  0  0  0
 30 91  1  6  0  0  0
 31 36  1  0  0  0  0
 31 37  1  0  0  0  0
 32 38  1  0  0  0  0
 33 92  1  0  0  0  0
 33 93  1  0  0  0  0
 33 94  1  0  0  0  0
 34 39  1  0  0  0  0
 34 95  1  1  0  0  0
 35 96  1  0  0  0  0
 35 97  1  0  0  0  0
 35 98  1  0  0  0  0
 36 40  2  0  0  0  0
 36 99  1  0  0  0  0
 37 41  2  0  0  0  0
 37100  1  0  0  0  0
 38101  1  0  0  0  0
 38102  1  0  0  0  0
 38103  1  0  0  0  0
 39 42  1  0  0  0  0
 40 41  1  0  0  0  0
 40 43  1  0  0  0  0
 42 44  1  0  0  0  0
 42 45  1  0  0  0  0
 42104  1  1  0  0  0
 43 46  2  0  0  0  0
 43 47  1  0  0  0  0
 44 48  1  0  0  0  0
 44 49  1  0  0  0  0
 44105  1  6  0  0  0
 45 50  1  0  0  0  0
 46 51  1  0  0  0  0
 46106  1  0  0  0  0
 47 52  2  0  0  0  0
 47107  1  0  0  0  0
 48108  1  0  0  0  0
 49 53  1  0  0  0  0
 49 54  1  0  0  0  0
 49109  1  1  0  0  0
 50 54  1  0  0  0  0
 50 55  1  0  0  0  0
 50110  1  1  0  0  0
 51 56  2  0  0  0  0
 51111  1  0  0  0  0
 52 56  1  0  0  0  0
 53 57  1  0  0  0  0
 53 58  1  0  0  0  0
 54112  1  0  0  0  0
 54113  1  0  0  0  0
 55114  1  0  0  0  0
 55115  1  0  0  0  0
 55116  1  0  0  0  0
 56117  1  0  0  0  0
 57118  1  0  0  0  0
 57119  1  0  0  0  0
 57120  1  0  0  0  0
 58121  1  0  0  0  0
 58122  1  0  0  0  0
 58123  1  0  0  0  0
M  END
$$$$
