2F4U_AB6_B_41
 OpenBabel03221817223D

 80 81  0  0  1  0  0  0  0  0999 V2000
   -0.5343    3.0251    1.9855 C   0  0  2  0  0  0  0  0  0  0  0  0
   -0.1868    3.9493    2.4407 H   0  0  0  0  0  0  0  0  0  0  0  0
   -1.9429    2.7607    2.5980 C   0  0  1  0  0  0  0  0  0  0  0  0
   -1.8338    2.7283    3.6884 H   0  0  0  0  0  0  0  0  0  0  0  0
   -2.8656    3.9445    2.2030 C   0  0  1  0  0  0  0  0  0  0  0  0
   -3.8865    3.7121    2.5289 H   0  0  0  0  0  0  0  0  0  0  0  0
   -2.5239    5.1710    2.8590 O   0  0  0  0  0  0  0  0  0  0  0  0
   -2.8669    4.1820    0.6811 C   0  0  2  0  0  0  0  0  0  0  0  0
   -3.4090    5.1038    0.4362 H   0  0  0  0  0  0  0  0  0  0  0  0
   -3.5536    3.1074    0.0175 O   0  0  0  0  0  0  0  0  0  0  0  0
   -1.4324    4.2631    0.1183 C   0  0  2  0  0  0  0  0  0  0  0  0
   -1.4857    4.1348   -0.9721 H   0  0  0  0  0  0  0  0  0  0  0  0
   -0.6193    3.1604    0.5630 O   0  0  0  0  0  0  0  0  0  0  0  0
   -0.7653    5.6327    0.3701 C   0  0  0  0  0  0  0  0  0  0  0  0
    0.5080    5.6978   -0.2801 O   0  0  0  0  0  0  0  0  0  0  0  0
   -2.5237    1.4589    2.1902 N   0  0  0  0  0  0  0  0  0  0  0  0
    0.3827    1.9912    2.3769 O   0  0  0  0  0  0  0  0  0  0  0  0
    1.6838    2.0845    1.7607 C   0  0  2  0  0  0  0  0  0  0  0  0
    1.5485    2.0845    0.6715 H   0  0  0  0  0  0  0  0  0  0  0  0
    2.4998    0.8256    2.1781 C   0  0  2  0  0  0  0  0  0  0  0  0
    2.7286    0.8964    3.2497 H   0  0  0  0  0  0  0  0  0  0  0  0
    3.8021    0.7846    1.3853 C   0  0  0  0  0  0  0  0  0  0  0  0
    4.6679    1.9999    1.7091 C   0  0  1  0  0  0  0  0  0  0  0  0
    4.9767    1.9194    2.7606 H   0  0  0  0  0  0  0  0  0  0  0  0
    5.9337    1.9332    0.9766 N   0  0  0  0  0  0  0  0  0  0  0  0
    6.0680    1.9687   -0.3966 C   0  0  0  0  0  0  0  0  0  0  0  0
    5.1264    2.0419   -1.1813 O   0  0  0  0  0  0  0  0  0  0  0  0
    7.5257    2.0348   -0.8901 C   0  0  1  0  0  0  0  0  0  0  0  0
    7.9406    2.9744   -0.5169 H   0  0  0  0  0  0  0  0  0  0  0  0
    8.3277    0.8358   -0.3835 C   0  0  0  0  0  0  0  0  0  0  0  0
    9.7893    0.8312   -0.8162 C   0  0  0  0  0  0  0  0  0  0  0  0
   10.5193    1.9784   -0.2782 N   0  0  0  0  0  0  0  0  0  0  0  0
    7.5827    2.0874   -2.3158 O   0  0  0  0  0  0  0  0  0  0  0  0
    3.9237    3.3527    1.5611 C   0  0  1  0  0  0  0  0  0  0  0  0
    3.7861    3.6226    0.5105 H   0  0  0  0  0  0  0  0  0  0  0  0
    2.5099    3.3206    2.2040 C   0  0  1  0  0  0  0  0  0  0  0  0
    2.6025    3.3062    3.2973 H   0  0  0  0  0  0  0  0  0  0  0  0
    1.8375    4.5574    1.9266 O   0  0  0  0  0  0  0  0  0  0  0  0
    4.6427    4.4013    2.2465 O   0  0  0  0  0  0  0  0  0  0  0  0
    5.8521    4.8796    1.6565 C   0  0  0  0  0  0  0  0  0  0  0  0
    5.7428    5.3379    0.1966 C   0  0  0  0  0  0  0  0  0  0  0  0
    4.8412    6.4773    0.1070 N   0  0  0  0  0  0  0  0  0  0  0  0
    4.5874    6.8818   -1.2653 C   0  0  0  0  0  0  0  0  0  0  0  0
    3.7275    8.1414   -1.2279 C   0  0  0  0  0  0  0  0  0  0  0  0
    3.4221    8.6335   -2.6356 C   0  0  0  0  0  0  0  0  0  0  0  0
    2.6382    9.8611   -2.5699 N   0  0  0  0  0  0  0  0  0  0  0  0
    1.7885   -0.4480    2.0049 N   0  0  0  0  0  0  0  0  0  0  0  0
   -1.8001    5.0246    3.4945 H   0  0  0  0  0  0  0  0  0  0  0  0
   -4.4606    3.0737    0.3685 H   0  0  0  0  0  0  0  0  0  0  0  0
   -1.3852    6.4502   -0.0148 H   0  0  0  0  0  0  0  0  0  0  0  0
   -0.5859    5.8250    1.4289 H   0  0  0  0  0  0  0  0  0  0  0  0
    0.3435    5.7468   -1.2372 H   0  0  0  0  0  0  0  0  0  0  0  0
   -2.5506    1.4419    1.1626 H   0  0  0  0  0  0  0  0  0  0  0  0
   -3.4902    1.3922    2.5022 H   0  0  0  0  0  0  0  0  0  0  0  0
    3.5765    0.7434    0.3123 H   0  0  0  0  0  0  0  0  0  0  0  0
    4.3687   -0.1277    1.6143 H   0  0  0  0  0  0  0  0  0  0  0  0
    6.7735    1.9470    1.5373 H   0  0  0  0  0  0  0  0  0  0  0  0
    7.8580   -0.0813   -0.7553 H   0  0  0  0  0  0  0  0  0  0  0  0
    8.2879    0.7817    0.7100 H   0  0  0  0  0  0  0  0  0  0  0  0
    9.8764    0.8137   -1.9064 H   0  0  0  0  0  0  0  0  0  0  0  0
   10.2573   -0.0841   -0.4378 H   0  0  0  0  0  0  0  0  0  0  0  0
   10.2330    2.8175   -0.7845 H   0  0  0  0  0  0  0  0  0  0  0  0
   11.5078    1.8652   -0.5105 H   0  0  0  0  0  0  0  0  0  0  0  0
    6.6733    2.2941   -2.6157 H   0  0  0  0  0  0  0  0  0  0  0  0
    1.7633    4.6904    0.9584 H   0  0  0  0  0  0  0  0  0  0  0  0
    6.6383    4.1310    1.7748 H   0  0  0  0  0  0  0  0  0  0  0  0
    6.1776    5.7250    2.2734 H   0  0  0  0  0  0  0  0  0  0  0  0
    5.3703    4.5367   -0.4419 H   0  0  0  0  0  0  0  0  0  0  0  0
    6.7389    5.6058   -0.1704 H   0  0  0  0  0  0  0  0  0  0  0  0
    5.1984    7.2548    0.6601 H   0  0  0  0  0  0  0  0  0  0  0  0
    4.0551    6.0847   -1.7995 H   0  0  0  0  0  0  0  0  0  0  0  0
    5.5263    7.0813   -1.7943 H   0  0  0  0  0  0  0  0  0  0  0  0
    4.2504    8.9271   -0.6664 H   0  0  0  0  0  0  0  0  0  0  0  0
    2.7909    7.9328   -0.6930 H   0  0  0  0  0  0  0  0  0  0  0  0
    2.8653    7.8704   -3.1901 H   0  0  0  0  0  0  0  0  0  0  0  0
    4.3538    8.8299   -3.1769 H   0  0  0  0  0  0  0  0  0  0  0  0
    1.7813    9.6915   -2.0453 H   0  0  0  0  0  0  0  0  0  0  0  0
    2.3595   10.1392   -3.5082 H   0  0  0  0  0  0  0  0  0  0  0  0
    0.8517   -0.3246    2.4006 H   0  0  0  0  0  0  0  0  0  0  0  0
    1.6356   -0.6316    1.0157 H   0  0  0  0  0  0  0  0  0  0  0  0
  1  3  1  1  0  0  0
  1 13  1  0  0  0  0
  1 17  1  0  0  0  0
  1  2  1  0  0  0  0
  3  5  1  6  0  0  0
  3 16  1  0  0  0  0
  3  4  1  0  0  0  0
  5  8  1  6  0  0  0
  5  7  1  0  0  0  0
  5  6  1  0  0  0  0
  7 48  1  0  0  0  0
  8  9  1  0  0  0  0
  8 10  1  0  0  0  0
  8 11  1  6  0  0  0
 10 49  1  0  0  0  0
 11 13  1  0  0  0  0
 11 14  1  0  0  0  0
 11 12  1  6  0  0  0
 14 15  1  0  0  0  0
 14 50  1  0  0  0  0
 14 51  1  0  0  0  0
 15 52  1  0  0  0  0
 16 53  1  0  0  0  0
 16 54  1  0  0  0  0
 18 20  1  1  0  0  0
 18 36  1  0  0  0  0
 18 19  1  0  0  0  0
 18 17  1  0  0  0  0
 20 21  1  1  0  0  0
 20 22  1  0  0  0  0
 20 47  1  0  0  0  0
 22 23  1  0  0  0  0
 22 55  1  0  0  0  0
 22 56  1  0  0  0  0
 23 25  1  0  0  0  0
 23 24  1  1  0  0  0
 25 26  1  0  0  0  0
 25 57  1  0  0  0  0
 26 27  2  0  0  0  0
 26 28  1  0  0  0  0
 28 29  1  1  0  0  0
 28 30  1  0  0  0  0
 28 33  1  0  0  0  0
 30 31  1  0  0  0  0
 30 58  1  0  0  0  0
 30 59  1  0  0  0  0
 31 32  1  0  0  0  0
 31 60  1  0  0  0  0
 31 61  1  0  0  0  0
 32 62  1  0  0  0  0
 32 63  1  0  0  0  0
 33 64  1  0  0  0  0
 34 23  1  1  0  0  0
 34 35  1  0  0  0  0
 34 39  1  0  0  0  0
 36 34  1  6  0  0  0
 36 38  1  0  0  0  0
 36 37  1  0  0  0  0
 38 65  1  0  0  0  0
 39 40  1  0  0  0  0
 40 41  1  0  0  0  0
 40 66  1  0  0  0  0
 40 67  1  0  0  0  0
 41 42  1  0  0  0  0
 41 68  1  0  0  0  0
 41 69  1  0  0  0  0
 42 43  1  0  0  0  0
 42 70  1  0  0  0  0
 43 44  1  0  0  0  0
 43 71  1  0  0  0  0
 43 72  1  0  0  0  0
 44 45  1  0  0  0  0
 44 73  1  0  0  0  0
 44 74  1  0  0  0  0
 45 46  1  0  0  0  0
 45 75  1  0  0  0  0
 45 76  1  0  0  0  0
 46 77  1  0  0  0  0
 46 78  1  0  0  0  0
 47 79  1  0  0  0  0
 47 80  1  0  0  0  0
M  END
$$$$
