ligands/ligand.pdb
 OpenBabel03221817003D

 87 90  0  0  1  0  0  0  0  0999 V2000
    0.4827    1.2555   -0.2123 C   0  0  2  0  0  0  0  0  0  0  0  0
    1.0008    0.2938   -0.1947 H   0  0  0  0  0  0  0  0  0  0  0  0
    1.3937    2.2632    0.2765 O   0  0  0  0  0  0  0  0  0  0  0  0
    1.8087    2.0877    1.6525 C   0  0  1  0  0  0  0  0  0  0  0  0
    0.9126    2.0050    2.2807 H   0  0  0  0  0  0  0  0  0  0  0  0
    2.7009    0.8270    1.8083 C   0  0  1  0  0  0  0  0  0  0  0  0
    2.1467   -0.0257    1.4074 H   0  0  0  0  0  0  0  0  0  0  0  0
    3.9972    1.0129    0.9753 C   0  0  2  0  0  0  0  0  0  0  0  0
    4.6215    0.1187    1.0239 H   0  0  0  0  0  0  0  0  0  0  0  0
    4.8265    2.2213    1.4791 C   0  0  2  0  0  0  0  0  0  0  0  0
    5.6628    2.3660    0.7847 H   0  0  0  0  0  0  0  0  0  0  0  0
    5.4255    2.0500    2.8119 N   0  0  0  0  0  0  0  0  0  0  0  0
    3.9711    3.4968    1.4394 C   0  0  0  0  0  0  0  0  0  0  0  0
    2.5733    3.3818    2.0936 C   0  0  2  0  0  0  0  0  0  0  0  0
    2.0035    4.2515    1.7413 H   0  0  0  0  0  0  0  0  0  0  0  0
    2.6494    3.5108    3.5583 N   0  0  0  0  0  0  0  0  0  0  0  0
    3.7023    1.1462   -0.4245 O   0  0  0  0  0  0  0  0  0  0  0  0
    2.9604    0.5504    3.2003 O   0  0  0  0  0  0  0  0  0  0  0  0
    3.6493   -0.6883    3.3600 C   0  0  1  0  0  0  0  0  0  0  0  0
    4.5767   -0.6768    2.7850 H   0  0  0  0  0  0  0  0  0  0  0  0
    4.0252   -0.9728    4.8068 C   0  0  2  0  0  0  0  0  0  0  0  0
    3.1862   -0.7725    5.4797 H   0  0  0  0  0  0  0  0  0  0  0  0
    5.1523   -0.2090    5.2463 O   0  0  0  0  0  0  0  0  0  0  0  0
    4.3467   -2.4594    4.6958 C   0  0  2  0  0  0  0  0  0  0  0  0
    4.2467   -2.9016    5.6855 H   0  0  0  0  0  0  0  0  0  0  0  0
    5.7261   -2.5446    4.2848 O   0  0  0  0  0  0  0  0  0  0  0  0
    6.2468   -3.8146    3.9017 C   0  0  1  0  0  0  0  0  0  0  0  0
    5.6525   -4.1983    3.0687 H   0  0  0  0  0  0  0  0  0  0  0  0
    7.5545   -3.6246    3.3284 O   0  0  0  0  0  0  0  0  0  0  0  0
    8.6288   -3.3220    4.2356 C   0  0  2  0  0  0  0  0  0  0  0  0
    9.5505   -3.3879    3.6429 H   0  0  0  0  0  0  0  0  0  0  0  0
    8.7208   -4.4004    5.3306 C   0  0  2  0  0  0  0  0  0  0  0  0
    8.9798   -5.3577    4.8577 H   0  0  0  0  0  0  0  0  0  0  0  0
    7.3743   -4.5755    6.0407 C   0  0  1  0  0  0  0  0  0  0  0  0
    7.1147   -3.6739    6.6091 H   0  0  0  0  0  0  0  0  0  0  0  0
    6.2900   -4.9114    5.0075 C   0  0  1  0  0  0  0  0  0  0  0  0
    6.5959   -5.8422    4.5085 H   0  0  0  0  0  0  0  0  0  0  0  0
    5.0147   -5.2420    5.6856 N   0  0  0  0  0  0  0  0  0  0  0  0
    7.4639   -5.6413    7.0018 O   0  0  0  0  0  0  0  0  0  0  0  0
    9.7487   -4.1598    6.2981 O   0  0  0  0  0  0  0  0  0  0  0  0
    8.5814   -1.8819    4.8103 C   0  0  0  0  0  0  0  0  0  0  0  0
    8.5867   -0.8298    3.7903 N   0  0  0  0  0  0  0  0  0  0  0  0
    3.3166   -2.9530    3.6647 C   0  0  2  0  0  0  0  0  0  0  0  0
    3.7310   -3.6351    2.9204 H   0  0  0  0  0  0  0  0  0  0  0  0
    2.8612   -1.7933    2.9299 O   0  0  0  0  0  0  0  0  0  0  0  0
    2.0898   -3.6051    4.2987 C   0  0  0  0  0  0  0  0  0  0  0  0
    1.5015   -2.7352    5.2621 O   0  0  0  0  0  0  0  0  0  0  0  0
    0.1439    1.5553   -1.7106 C   0  0  2  0  0  0  0  0  0  0  0  0
    1.0774    1.4658   -2.2842 H   0  0  0  0  0  0  0  0  0  0  0  0
   -0.3420    2.9371   -1.9295 N   0  0  0  0  0  0  0  0  0  0  0  0
   -0.8774    0.5090   -2.2201 C   0  0  1  0  0  0  0  0  0  0  0  0
   -1.2294    0.8249   -3.2104 H   0  0  0  0  0  0  0  0  0  0  0  0
   -0.3064   -0.7879   -2.4212 O   0  0  0  0  0  0  0  0  0  0  0  0
   -2.0897    0.3914   -1.2784 C   0  0  2  0  0  0  0  0  0  0  0  0
   -2.7329   -0.4419   -1.5823 H   0  0  0  0  0  0  0  0  0  0  0  0
   -2.8822    1.5845   -1.3538 O   0  0  0  0  0  0  0  0  0  0  0  0
   -1.6538    0.1939    0.1851 C   0  0  2  0  0  0  0  0  0  0  0  0
   -2.5196    0.3951    0.8282 H   0  0  0  0  0  0  0  0  0  0  0  0
   -0.6857    1.1759    0.5971 O   0  0  0  0  0  0  0  0  0  0  0  0
   -1.2001   -1.2493    0.4883 C   0  0  0  0  0  0  0  0  0  0  0  0
   -0.7974   -1.4077    1.8473 O   0  0  0  0  0  0  0  0  0  0  0  0
    6.0121    1.2150    2.8286 H   0  0  0  0  0  0  0  0  0  0  0  0
    4.6946    1.8742    3.5069 H   0  0  0  0  0  0  0  0  0  0  0  0
    3.8334    3.7766    0.3867 H   0  0  0  0  0  0  0  0  0  0  0  0
    4.5328    4.3339    1.8774 H   0  0  0  0  0  0  0  0  0  0  0  0
    3.4777    4.0473    3.8196 H   0  0  0  0  0  0  0  0  0  0  0  0
    2.7598    2.5885    3.9834 H   0  0  0  0  0  0  0  0  0  0  0  0
    3.0889    1.9035   -0.5248 H   0  0  0  0  0  0  0  0  0  0  0  0
    5.9246   -0.6141    4.7980 H   0  0  0  0  0  0  0  0  0  0  0  0
    4.8692   -4.5826    6.4554 H   0  0  0  0  0  0  0  0  0  0  0  0
    5.1895   -6.1071    6.2099 H   0  0  0  0  0  0  0  0  0  0  0  0
    8.3696   -5.6114    7.3683 H   0  0  0  0  0  0  0  0  0  0  0  0
    9.5025   -3.3944    6.8452 H   0  0  0  0  0  0  0  0  0  0  0  0
    7.6939   -1.7450    5.4300 H   0  0  0  0  0  0  0  0  0  0  0  0
    9.4445   -1.7149    5.4632 H   0  0  0  0  0  0  0  0  0  0  0  0
    8.4803    0.0810    4.2376 H   0  0  0  0  0  0  0  0  0  0  0  0
    9.5047   -0.8046    3.3413 H   0  0  0  0  0  0  0  0  0  0  0  0
    1.3302   -3.8226    3.5405 H   0  0  0  0  0  0  0  0  0  0  0  0
    2.3615   -4.5396    4.7962 H   0  0  0  0  0  0  0  0  0  0  0  0
    1.1433   -1.9825    4.7521 H   0  0  0  0  0  0  0  0  0  0  0  0
   -1.1769    3.0708   -1.3464 H   0  0  0  0  0  0  0  0  0  0  0  0
   -0.6420    3.0633   -2.8935 H   0  0  0  0  0  0  0  0  0  0  0  0
    0.6192   -0.8075   -2.1201 H   0  0  0  0  0  0  0  0  0  0  0  0
   -3.2185    1.6641   -2.2634 H   0  0  0  0  0  0  0  0  0  0  0  0
   -2.0226   -1.9487    0.3010 H   0  0  0  0  0  0  0  0  0  0  0  0
   -0.3506   -1.5650   -0.1178 H   0  0  0  0  0  0  0  0  0  0  0  0
   -1.2089   -0.6966    2.3684 H   0  0  0  0  0  0  0  0  0  0  0  0
  1 48  1  6  0  0  0
  1 59  1  0  0  0  0
  1  3  1  0  0  0  0
  1  2  1  0  0  0  0
  3  4  1  0  0  0  0
  4  5  1  0  0  0  0
  4  6  1  1  0  0  0
  6  8  1  6  0  0  0
  6 18  1  0  0  0  0
  6  7  1  0  0  0  0
  8 10  1  1  0  0  0
  8 17  1  0  0  0  0
  8  9  1  0  0  0  0
 10 11  1  6  0  0  0
 10 12  1  0  0  0  0
 10 13  1  0  0  0  0
 12 62  1  0  0  0  0
 12 63  1  0  0  0  0
 13 14  1  0  0  0  0
 13 64  1  0  0  0  0
 13 65  1  0  0  0  0
 14 15  1  0  0  0  0
 14  4  1  6  0  0  0
 14 16  1  0  0  0  0
 16 66  1  0  0  0  0
 16 67  1  0  0  0  0
 17 68  1  0  0  0  0
 18 19  1  0  0  0  0
 19 20  1  0  0  0  0
 19 21  1  1  0  0  0
 19 45  1  0  0  0  0
 21 24  1  1  0  0  0
 21 23  1  0  0  0  0
 21 22  1  0  0  0  0
 23 69  1  0  0  0  0
 24 25  1  0  0  0  0
 24 26  1  0  0  0  0
 24 43  1  6  0  0  0
 26 27  1  0  0  0  0
 27 28  1  0  0  0  0
 27 29  1  0  0  0  0
 27 36  1  1  0  0  0
 29 30  1  0  0  0  0
 30 32  1  1  0  0  0
 30 41  1  0  0  0  0
 30 31  1  0  0  0  0
 32 40  1  0  0  0  0
 32 33  1  6  0  0  0
 34 32  1  6  0  0  0
 34 35  1  0  0  0  0
 34 39  1  0  0  0  0
 36 34  1  1  0  0  0
 36 38  1  0  0  0  0
 36 37  1  0  0  0  0
 38 70  1  0  0  0  0
 38 71  1  0  0  0  0
 39 72  1  0  0  0  0
 40 73  1  0  0  0  0
 41 42  1  0  0  0  0
 41 74  1  0  0  0  0
 41 75  1  0  0  0  0
 42 76  1  0  0  0  0
 42 77  1  0  0  0  0
 43 45  1  0  0  0  0
 43 46  1  0  0  0  0
 43 44  1  6  0  0  0
 46 47  1  0  0  0  0
 46 78  1  0  0  0  0
 46 79  1  0  0  0  0
 47 80  1  0  0  0  0
 48 51  1  6  0  0  0
 48 50  1  0  0  0  0
 48 49  1  0  0  0  0
 50 81  1  0  0  0  0
 50 82  1  0  0  0  0
 51 54  1  1  0  0  0
 51 53  1  0  0  0  0
 51 52  1  0  0  0  0
 53 83  1  0  0  0  0
 54 55  1  0  0  0  0
 54 56  1  0  0  0  0
 54 57  1  1  0  0  0
 56 84  1  0  0  0  0
 57 59  1  0  0  0  0
 57 60  1  0  0  0  0
 57 58  1  1  0  0  0
 60 61  1  0  0  0  0
 60 85  1  0  0  0  0
 60 86  1  0  0  0  0
 61 87  1  0  0  0  0
M  END
$$$$
