2G9C_3AY_A_91
 OpenBabel10091713573D
Coordinates from PDB:2G9C:A:91 Model:1 without hydrogens
 16 16  0  0  0  0  0  0  0  0999 V2000
   10.9060   13.1200    6.2110 N   0  0  0  0  0  0  0  0  0  0  0  0
   11.2080   12.4500    7.3170 C   0  0  0  0  0  0  0  0  0  0  0  0
   11.6280   11.1280    7.2360 C   0  0  0  0  0  0  0  0  0  0  0  0
   11.1530   13.0620    8.5110 N   0  0  0  0  0  0  0  0  0  0  0  0
   11.5040   12.4280    9.6400 C   0  0  0  0  0  0  0  0  0  0  0  0
   11.5150   13.0870   10.7980 N   0  0  0  0  0  0  0  0  0  0  0  0
   11.9100   11.1500    9.5940 N   0  0  0  0  0  0  0  0  0  0  0  0
   11.9800   10.4950    8.4240 C   0  0  0  0  0  0  0  0  0  0  0  0
   12.3940    9.2320    8.4000 N   0  0  0  0  0  0  0  0  0  0  0  0
   10.9467   12.6701    5.3363 H   0  0  0  0  0  0  0  0  0  0  0  0
   10.6413   14.0667    6.2657 H   0  0  0  0  0  0  0  0  0  0  0  0
   11.6769   10.6352    6.3306 H   0  0  0  0  0  0  0  0  0  0  0  0
   11.2174   14.0248   10.8335 H   0  0  0  0  0  0  0  0  0  0  0  0
   11.8207   12.6361   11.6181 H   0  0  0  0  0  0  0  0  0  0  0  0
   12.4470    8.7475    7.5446 H   0  0  0  0  0  0  0  0  0  0  0  0
   12.6476    8.7811    9.2376 H   0  0  0  0  0  0  0  0  0  0  0  0
  1  2  1  0  0  0  0
  1 10  1  0  0  0  0
  1 11  1  0  0  0  0
  2  3  2  0  0  0  0
  2  4  1  0  0  0  0
  3  8  1  0  0  0  0
  3 12  1  0  0  0  0
  4  5  2  0  0  0  0
  5  6  1  0  0  0  0
  5  7  1  0  0  0  0
  6 13  1  0  0  0  0
  6 14  1  0  0  0  0
  7  8  2  0  0  0  0
  8  9  1  0  0  0  0
  9 15  1  0  0  0  0
  9 16  1  0  0  0  0
M  END
$$$$
