4LVX_H4B_A_101
 OpenBabel03221817313D

 32 33  0  0  1  0  0  0  0  0999 V2000
   -8.4921    0.9136    0.7986 N   0  0  0  0  0  0  0  0  0  0  0  0
   -8.5374    2.2027    0.9119 C   0  0  0  0  0  0  0  0  0  0  0  0
   -9.6925    2.8179    1.2553 N   0  0  0  0  0  0  0  0  0  0  0  0
   -7.4638    3.0065    0.7023 N   0  0  0  0  0  0  0  0  0  0  0  0
   -7.5273    4.0030    0.8312 H   0  0  0  0  0  0  0  0  0  0  0  0
   -6.2280    2.5116    0.4268 C   0  0  0  0  0  0  0  0  0  0  0  0
   -5.2358    3.2280    0.3050 O   0  0  0  0  0  0  0  0  0  0  0  0
   -6.1393    1.0308    0.3340 C   0  0  0  0  0  0  0  0  0  0  0  0
   -7.2867    0.3239    0.5246 C   0  0  0  0  0  0  0  0  0  0  0  0
   -7.2133   -1.0746    0.4898 N   0  0  0  0  0  0  0  0  0  0  0  0
   -5.9999   -1.7413   -0.0027 C   0  0  0  0  0  0  0  0  0  0  0  0
   -4.7310   -0.9800    0.5098 C   0  0  1  0  0  0  0  0  0  0  0  0
   -3.8582   -1.4058    0.0033 H   0  0  0  0  0  0  0  0  0  0  0  0
   -4.8865    0.4351    0.1225 N   0  0  0  0  0  0  0  0  0  0  0  0
   -4.5877   -1.1545    2.0489 C   0  0  1  0  0  0  0  0  0  0  0  0
   -5.4963   -0.8170    2.5655 H   0  0  0  0  0  0  0  0  0  0  0  0
   -4.4438   -2.5572    2.3442 O   0  0  0  0  0  0  0  0  0  0  0  0
   -3.4062   -0.3691    2.6634 C   0  0  2  0  0  0  0  0  0  0  0  0
   -3.4862    0.6913    2.4024 H   0  0  0  0  0  0  0  0  0  0  0  0
   -2.0382   -0.8945    2.2485 C   0  0  0  0  0  0  0  0  0  0  0  0
   -3.5030   -0.4327    4.0954 O   0  0  0  0  0  0  0  0  0  0  0  0
  -10.4950    2.1990    1.2053 H   0  0  0  0  0  0  0  0  0  0  0  0
   -9.8642    3.7455    0.8938 H   0  0  0  0  0  0  0  0  0  0  0  0
   -8.1079   -1.4793    0.2360 H   0  0  0  0  0  0  0  0  0  0  0  0
   -6.0144   -1.7277   -1.0997 H   0  0  0  0  0  0  0  0  0  0  0  0
   -5.9969   -2.7895    0.3122 H   0  0  0  0  0  0  0  0  0  0  0  0
   -4.1175    1.0809    0.2963 H   0  0  0  0  0  0  0  0  0  0  0  0
   -5.3300   -2.8651    2.6095 H   0  0  0  0  0  0  0  0  0  0  0  0
   -1.2468   -0.2940    2.7107 H   0  0  0  0  0  0  0  0  0  0  0  0
   -1.9023   -0.8576    1.1647 H   0  0  0  0  0  0  0  0  0  0  0  0
   -1.8874   -1.9226    2.5932 H   0  0  0  0  0  0  0  0  0  0  0  0
   -2.7134   -0.0003    4.4643 H   0  0  0  0  0  0  0  0  0  0  0  0
  1  2  2  0  0  0  0
  1  9  1  0  0  0  0
  2  3  1  0  0  0  0
  2  4  1  0  0  0  0
  3 22  1  0  0  0  0
  3 23  1  0  0  0  0
  4  5  1  0  0  0  0
  4  6  1  0  0  0  0
  6  7  2  0  0  0  0
  6  8  1  0  0  0  0
  8  9  2  0  0  0  0
  8 14  1  0  0  0  0
  9 10  1  0  0  0  0
 10 11  1  0  0  0  0
 10 24  1  0  0  0  0
 11 12  1  0  0  0  0
 11 25  1  0  0  0  0
 11 26  1  0  0  0  0
 12 14  1  0  0  0  0
 12 15  1  0  0  0  0
 12 13  1  6  0  0  0
 14 27  1  0  0  0  0
 15 16  1  1  0  0  0
 15 17  1  0  0  0  0
 17 28  1  0  0  0  0
 18 20  1  0  0  0  0
 18 21  1  0  0  0  0
 18 19  1  6  0  0  0
 18 15  1  0  0  0  0
 20 29  1  0  0  0  0
 20 30  1  0  0  0  0
 20 31  1  0  0  0  0
 21 32  1  0  0  0  0
M  END
$$$$
