untitled
 OpenBabel10091713583D

106110  0  0  1  0  0  0  0  0999 V2000
   17.6730   30.4480   29.1880 C   0  0  2  0  0  0  0  0  0  0  0  0
   18.3660   31.6210   28.9890 O   0  0  0  0  0  0  0  0  0  0  0  0
   20.3120   34.9210   31.2480 C   0  0  2  0  0  0  0  0  0  0  0  0
   20.5310   35.9830   32.2740 N   0  0  0  0  0  0  0  0  0  0  0  0
   21.1200   30.2310   31.3370 C   0  0  1  0  0  0  0  0  0  0  0  0
   19.9740   27.5850   35.0100 C   0  0  1  0  0  0  0  0  0  0  0  0
   24.1210   28.8570   32.9070 C   0  0  0  0  0  0  0  0  0  0  0  0
   28.1640   27.0050   29.5730 C   0  0  0  0  0  0  0  0  0  0  0  0
   18.1190   29.3290   28.1330 C   0  0  2  0  0  0  0  0  0  0  0  0
   19.5700   29.1750   28.2320 N   0  0  0  0  0  0  0  0  0  0  0  0
   18.9080   35.1890   30.5030 C   0  0  0  0  0  0  0  0  0  0  0  0
   21.6120   29.9270   32.7550 C   0  0  2  0  0  0  0  0  0  0  0  0
   23.1140   29.9110   32.6310 O   0  0  0  0  0  0  0  0  0  0  0  0
   20.6020   27.0060   36.4160 C   0  0  2  0  0  0  0  0  0  0  0  0
   21.3680   25.7430   36.1010 N   0  0  0  0  0  0  0  0  0  0  0  0
   25.3400   29.1810   32.0510 C   0  0  0  0  0  0  0  0  0  0  0  0
   25.0060   28.8370   30.6210 N   0  0  0  0  0  0  0  0  0  0  0  0
   28.9760   26.9980   28.3790 C   0  0  0  0  0  3  0  0  0  0  0  0
   17.6250   29.7530   26.6100 C   0  0  1  0  0  0  0  0  0  0  0  0
   18.1630   28.5940   25.9670 O   0  0  0  0  0  0  0  0  0  0  0  0
   18.6220   34.0350   29.3590 C   0  0  2  0  0  0  0  0  0  0  0  0
   17.3960   34.2610   28.6990 N   0  0  0  0  0  0  0  0  0  0  0  0
   20.7590   28.6550   33.0100 C   0  0  2  0  0  0  0  0  0  0  0  0
   21.0620   27.8330   34.1050 O   0  0  0  0  0  0  0  0  0  0  0  0
   19.3940   26.7300   37.4170 C   0  0  1  0  0  0  0  0  0  0  0  0
   18.7520   28.0510   37.6240 O   0  0  0  0  0  0  0  0  0  0  0  0
   26.2190   28.6420   29.6540 C   0  0  0  0  0  0  0  0  0  0  0  0
   30.4040   26.8450   28.4800 C   0  0  0  0  0  3  0  0  0  0  0  0
   16.0460   29.8720   26.6150 C   0  0  2  0  0  0  0  0  0  0  0  0
   15.7000   29.9790   25.6110 O   0  0  0  0  0  0  0  0  0  0  0  0
   18.6110   32.5700   30.0200 C   0  0  2  0  0  0  0  0  0  0  0  0
   20.7470   27.9010   31.6420 C   0  0  2  0  0  0  0  0  0  0  0  0
   20.9520   28.9570   30.6710 O   0  0  0  0  0  0  0  0  0  0  0  0
   18.3380   25.6270   36.7640 C   0  0  2  0  0  0  0  0  0  0  0  0
   19.0120   24.3120   36.5780 O   0  0  0  0  0  0  0  0  0  0  0  0
   26.6320   27.1670   29.4670 C   0  0  0  0  0  0  0  0  0  0  0  0
   31.0280   26.7010   29.7730 C   0  0  0  0  0  3  0  0  0  0  0  0
   15.6200   30.9910   27.7300 C   0  0  2  0  0  0  0  0  0  0  0  0
   16.1820   30.5790   29.0250 O   0  0  0  0  0  0  0  0  0  0  0  0
   20.0190   32.3690   30.7440 C   0  0  2  0  0  0  0  0  0  0  0  0
   19.9580   31.0630   31.3110 O   0  0  0  0  0  0  0  0  0  0  0  0
   19.4380   27.2200   31.2180 C   0  0  0  0  0  0  0  0  0  0  0  0
   18.2430   27.8770   31.4840 O   0  0  0  0  0  0  0  0  0  0  0  0
   17.7890   26.2120   35.3420 C   0  0  1  0  0  0  0  0  0  0  0  0
   18.9840   26.5280   34.4390 O   0  0  0  0  0  0  0  0  0  0  0  0
   30.2240   26.7070   30.9690 C   0  0  0  0  0  3  0  0  0  0  0  0
   14.1260   31.0790   27.7450 C   0  0  0  0  0  0  0  0  0  0  0  0
   13.7040   32.2670   27.2560 O   0  0  0  0  0  0  0  0  0  0  0  0
   20.2480   33.4880   31.8710 C   0  0  1  0  0  0  0  0  0  0  0  0
   21.4670   33.3160   32.4850 O   0  0  0  0  0  0  0  0  0  0  0  0
   16.8270   25.1460   34.7370 C   0  0  0  0  0  0  0  0  0  0  0  0
   17.5780   24.1540   34.0360 N   0  0  0  0  0  0  0  0  0  0  0  0
   28.7940   26.8600   30.8710 C   0  0  0  0  0  3  0  0  0  0  0  0
   17.9040   30.1819   30.1983 H   0  0  0  0  0  0  0  0  0  0  0  0
   21.1409   34.9628   30.5727 H   0  0  0  0  0  0  0  0  0  0  0  0
   19.7587   35.9764   32.9403 H   0  0  0  0  0  0  0  0  0  0  0  0
   20.5775   36.8934   31.8164 H   0  0  0  0  0  0  0  0  0  0  0  0
   21.8397   30.8192   30.8069 H   0  0  0  0  0  0  0  0  0  0  0  0
   19.4384   28.4989   35.1612 H   0  0  0  0  0  0  0  0  0  0  0  0
   23.7306   27.8961   32.6441 H   0  0  0  0  0  0  0  0  0  0  0  0
   24.3761   28.8309   33.9458 H   0  0  0  0  0  0  0  0  0  0  0  0
   17.6585   28.3872   28.3470 H   0  0  0  0  0  0  0  0  0  0  0  0
   20.0212   30.0672   28.0300 H   0  0  0  0  0  0  0  0  0  0  0  0
   19.8843   28.4751   27.5598 H   0  0  0  0  0  0  0  0  0  0  0  0
   18.9383   36.1495   30.0324 H   0  0  0  0  0  0  0  0  0  0  0  0
   18.1226   35.1544   31.2288 H   0  0  0  0  0  0  0  0  0  0  0  0
   21.4851   30.5634   33.6057 H   0  0  0  0  0  0  0  0  0  0  0  0
   21.2719   27.7020   36.8762 H   0  0  0  0  0  0  0  0  0  0  0  0
   20.7433   25.0673   35.6610 H   0  0  0  0  0  0  0  0  0  0  0  0
   21.7423   25.3483   36.9638 H   0  0  0  0  0  0  0  0  0  0  0  0
   26.1783   28.6021   32.3780 H   0  0  0  0  0  0  0  0  0  0  0  0
   25.5910   30.2176   32.1365 H   0  0  0  0  0  0  0  0  0  0  0  0
   24.4283   29.5899   30.2470 H   0  0  0  0  0  0  0  0  0  0  0  0
   17.9267   30.6794   26.1677 H   0  0  0  0  0  0  0  0  0  0  0  0
   17.8475   27.7968   26.4206 H   0  0  0  0  0  0  0  0  0  0  0  0
   19.4137   34.0934   28.6416 H   0  0  0  0  0  0  0  0  0  0  0  0
   16.6322   34.2079   29.3729 H   0  0  0  0  0  0  0  0  0  0  0  0
   17.2626   33.5525   27.9774 H   0  0  0  0  0  0  0  0  0  0  0  0
   19.7924   28.9734   33.3406 H   0  0  0  0  0  0  0  0  0  0  0  0
   19.7205   26.3094   38.3451 H   0  0  0  0  0  0  0  0  0  0  0  0
   18.4661   28.4090   36.7691 H   0  0  0  0  0  0  0  0  0  0  0  0
   27.0556   29.1797   30.0488 H   0  0  0  0  0  0  0  0  0  0  0  0
   25.9159   29.0060   28.6946 H   0  0  0  0  0  0  0  0  0  0  0  0
   15.5334   28.9911   26.9409 H   0  0  0  0  0  0  0  0  0  0  0  0
   16.1085   30.7620   25.2099 H   0  0  0  0  0  0  0  0  0  0  0  0
   17.8415   32.4429   30.7525 H   0  0  0  0  0  0  0  0  0  0  0  0
   21.4682   27.1139   31.7142 H   0  0  0  0  0  0  0  0  0  0  0  0
   17.5116   25.4737   37.4262 H   0  0  0  0  0  0  0  0  0  0  0  0
   19.7685   24.4181   35.9803 H   0  0  0  0  0  0  0  0  0  0  0  0
   26.1639   26.5736   30.2244 H   0  0  0  0  0  0  0  0  0  0  0  0
   26.3212   26.8460   28.4948 H   0  0  0  0  0  0  0  0  0  0  0  0
   16.0025   31.9646   27.5051 H   0  0  0  0  0  0  0  0  0  0  0  0
   20.8403   32.4668   30.0652 H   0  0  0  0  0  0  0  0  0  0  0  0
   19.3973   26.2729   31.7142 H   0  0  0  0  0  0  0  0  0  0  0  0
   19.4902   27.1841   30.1499 H   0  0  0  0  0  0  0  0  0  0  0  0
   18.1210   27.9504   32.4435 H   0  0  0  0  0  0  0  0  0  0  0  0
   17.2435   27.1250   35.4591 H   0  0  0  0  0  0  0  0  0  0  0  0
   13.7796   30.9724   28.7518 H   0  0  0  0  0  0  0  0  0  0  0  0
   13.7331   30.2982   27.1278 H   0  0  0  0  0  0  0  0  0  0  0  0
   14.0530   32.9855   27.8063 H   0  0  0  0  0  0  0  0  0  0  0  0
   19.4299   33.3900   32.5536 H   0  0  0  0  0  0  0  0  0  0  0  0
   22.1756   33.4133   31.8298 H   0  0  0  0  0  0  0  0  0  0  0  0
   16.1503   25.6231   34.0592 H   0  0  0  0  0  0  0  0  0  0  0  0
   16.2783   24.6783   35.5276 H   0  0  0  0  0  0  0  0  0  0  0  0
   18.1030   24.5954   33.2810 H   0  0  0  0  0  0  0  0  0  0  0  0
   16.9419   23.4584   33.6463 H   0  0  0  0  0  0  0  0  0  0  0  0
  1  2  1  0  0  0  0
  1  9  1  0  0  0  0
  1 39  1  0  0  0  0
  1 54  1  1  0  0  0
  2 31  1  0  0  0  0
  3  4  1  0  0  0  0
  3 11  1  0  0  0  0
  3 49  1  0  0  0  0
  3 55  1  6  0  0  0
  4 56  1  0  0  0  0
  4 57  1  0  0  0  0
  5 12  1  0  0  0  0
  5 33  1  0  0  0  0
  5 41  1  0  0  0  0
  5 58  1  6  0  0  0
  6 14  1  0  0  0  0
  6 24  1  0  0  0  0
  6 45  1  0  0  0  0
  6 59  1  1  0  0  0
  7 13  1  0  0  0  0
  7 16  1  0  0  0  0
  7 60  1  0  0  0  0
  7 61  1  0  0  0  0
  8 18  2  0  0  0  0
  8 36  1  0  0  0  0
  8 53  1  0  0  0  0
  9 10  1  0  0  0  0
  9 19  1  0  0  0  0
  9 62  1  1  0  0  0
 10 63  1  0  0  0  0
 10 64  1  0  0  0  0
 11 21  1  0  0  0  0
 11 65  1  0  0  0  0
 11 66  1  0  0  0  0
 12 13  1  0  0  0  0
 12 23  1  0  0  0  0
 12 67  1  1  0  0  0
 14 15  1  0  0  0  0
 14 25  1  0  0  0  0
 14 68  1  1  0  0  0
 15 69  1  0  0  0  0
 15 70  1  0  0  0  0
 16 17  1  0  0  0  0
 16 71  1  0  0  0  0
 16 72  1  0  0  0  0
 17 27  1  0  0  0  0
 17 73  1  0  0  0  0
 18 28  1  0  0  0  0
 19 20  1  0  0  0  0
 19 29  1  0  0  0  0
 19 74  1  6  0  0  0
 20 75  1  0  0  0  0
 21 22  1  0  0  0  0
 21 31  1  0  0  0  0
 21 76  1  6  0  0  0
 22 77  1  0  0  0  0
 22 78  1  0  0  0  0
 23 24  1  0  0  0  0
 23 32  1  0  0  0  0
 23 79  1  1  0  0  0
 25 26  1  0  0  0  0
 25 34  1  0  0  0  0
 25 80  1  1  0  0  0
 26 81  1  0  0  0  0
 27 36  1  0  0  0  0
 27 82  1  0  0  0  0
 27 83  1  0  0  0  0
 28 37  2  0  0  0  0
 29 30  1  0  0  0  0
 29 38  1  0  0  0  0
 29 84  1  1  0  0  0
 30 85  1  0  0  0  0
 31 40  1  0  0  0  0
 31 86  1  1  0  0  0
 32 33  1  0  0  0  0
 32 42  1  0  0  0  0
 32 87  1  6  0  0  0
 34 35  1  0  0  0  0
 34 44  1  0  0  0  0
 34 88  1  1  0  0  0
 35 89  1  0  0  0  0
 36 90  1  0  0  0  0
 36 91  1  0  0  0  0
 37 46  1  0  0  0  0
 38 39  1  0  0  0  0
 38 47  1  0  0  0  0
 38 92  1  6  0  0  0
 40 41  1  0  0  0  0
 40 49  1  0  0  0  0
 40 93  1  6  0  0  0
 42 43  1  0  0  0  0
 42 94  1  0  0  0  0
 42 95  1  0  0  0  0
 43 96  1  0  0  0  0
 44 45  1  0  0  0  0
 44 51  1  0  0  0  0
 44 97  1  1  0  0  0
 46 53  2  0  0  0  0
 47 48  1  0  0  0  0
 47 98  1  0  0  0  0
 47 99  1  0  0  0  0
 48100  1  0  0  0  0
 49 50  1  0  0  0  0
 49101  1  1  0  0  0
 50102  1  0  0  0  0
 51 52  1  0  0  0  0
 51103  1  0  0  0  0
 51104  1  0  0  0  0
 52105  1  0  0  0  0
 52106  1  0  0  0  0
M  END
$$$$
