1NBK_GND_A_35
 OpenBabel03221816523D

 27 26  0  0  1  0  0  0  0  0999 V2000
    1.0817    0.9815    2.2631 C   0  0  1  0  0  0  0  0  0  0  0  0
    0.6579    0.9918    3.2702 H   0  0  0  0  0  0  0  0  0  0  0  0
    0.6210   -0.2109    1.4150 C   0  0  0  0  0  0  0  0  0  0  0  0
    1.0249   -1.5914    1.9493 C   0  0  0  0  0  0  0  0  0  0  0  0
    0.4349   -1.8862    3.3254 C   0  0  0  0  0  0  0  0  0  0  0  0
    0.8448   -3.1814    3.7977 N   0  0  0  0  0  0  0  0  0  0  0  0
    0.6096   -3.6215    5.0529 C   0  0  0  0  0  0  0  0  0  0  0  0
   -0.0967   -3.0654    5.9627 N   0  0  0  0  0  0  0  0  0  0  0  0
    1.2333   -4.7837    5.3052 N   0  0  0  0  0  0  0  0  0  0  0  0
    2.6056    1.0977    2.3230 C   0  0  0  0  0  0  0  0  0  0  0  0
    3.1938    1.8077    1.5158 O   0  0  0  0  0  0  0  0  0  0  0  0
    3.2314    0.4421    3.3094 O   0  0  0  0  0  0  0  0  0  0  0  0
    0.5414    2.2331    1.5970 N   0  3  0  0  0  0  0  0  0  0  0  0
   -0.4802    2.2604    1.5005 H   0  0  0  0  0  0  0  0  0  0  0  0
    0.8503    3.0752    2.1051 H   0  0  0  0  0  0  0  0  0  0  0  0
    0.9724    2.3311    0.6622 H   0  0  0  0  0  0  0  0  0  0  0  0
    1.0251   -0.1148    0.3983 H   0  0  0  0  0  0  0  0  0  0  0  0
   -0.4724   -0.1843    1.3151 H   0  0  0  0  0  0  0  0  0  0  0  0
    2.1178   -1.6778    1.9752 H   0  0  0  0  0  0  0  0  0  0  0  0
    0.6807   -2.3552    1.2397 H   0  0  0  0  0  0  0  0  0  0  0  0
   -0.6585   -1.8392    3.2771 H   0  0  0  0  0  0  0  0  0  0  0  0
    0.7697   -1.1271    4.0392 H   0  0  0  0  0  0  0  0  0  0  0  0
    1.6926   -3.5747    3.3983 H   0  0  0  0  0  0  0  0  0  0  0  0
   -0.5275   -2.2094    5.6264 H   0  0  0  0  0  0  0  0  0  0  0  0
    1.0988   -5.4828    4.5848 H   0  0  0  0  0  0  0  0  0  0  0  0
    0.9108   -5.1520    6.1981 H   0  0  0  0  0  0  0  0  0  0  0  0
    2.7432   -0.0748    3.9817 H   0  0  0  0  0  0  0  0  0  0  0  0
  1  2  1  1  0  0  0
  1  3  1  0  0  0  0
  1 10  1  0  0  0  0
  1 13  1  0  0  0  0
  3  4  1  0  0  0  0
  3 17  1  0  0  0  0
  3 18  1  0  0  0  0
  4  5  1  0  0  0  0
  4 19  1  0  0  0  0
  4 20  1  0  0  0  0
  5  6  1  0  0  0  0
  5 21  1  0  0  0  0
  5 22  1  0  0  0  0
  6  7  1  0  0  0  0
  6 23  1  0  0  0  0
  7  8  2  0  0  0  0
  7  9  1  0  0  0  0
  8 24  1  0  0  0  0
  9 25  1  0  0  0  0
  9 26  1  0  0  0  0
 10 11  2  0  0  0  0
 10 12  1  0  0  0  0
 12 27  1  0  0  0  0
 13 14  1  0  0  0  0
 13 15  1  0  0  0  0
 13 16  1  0  0  0  0
M  CHG  1  13   1
M  END
$$$$
