3NPQ_SAH_A_55
 OpenBabel10091713573D
Coordinates from PDB:3NPQ:A:55 Model:1 without hydrogens
 46 48  0  0  1  0  0  0  0  0999 V2000
   29.4470  -21.8880   13.1640 N   0  0  0  0  0  0  0  0  0  0  0  0
   30.3260  -22.2220   14.2790 C   0  0  1  0  0  0  0  0  0  0  0  0
   29.5190  -22.4160   15.5540 C   0  0  0  0  0  0  0  0  0  0  0  0
   28.8100  -23.7640   15.5810 C   0  0  0  0  0  0  0  0  0  0  0  0
   28.2530  -24.2810   17.2200 S   0  0  0  0  0  0  0  0  0  0  0  0
   31.1110  -23.4930   13.9830 C   0  0  0  0  0  0  0  0  0  0  0  0
   32.0860  -23.8140   14.6620 O   0  0  0  0  0  0  0  0  0  0  0  0
   30.7850  -24.2330   13.0550 O   0  0  0  0  0  0  0  0  0  0  0  0
   29.9650  -24.6690   17.6520 C   0  0  0  0  0  0  0  0  0  0  0  0
   30.0540  -25.7190   18.7480 C   0  0  1  0  0  0  0  0  0  0  0  0
   29.6660  -25.1770   19.9970 O   0  0  0  0  0  0  0  0  0  0  0  0
   29.1390  -26.8920   18.4510 C   0  0  1  0  0  0  0  0  0  0  0  0
   29.9300  -28.0250   18.1810 O   0  0  0  0  0  0  0  0  0  0  0  0
   28.3280  -27.1020   19.7110 C   0  0  1  0  0  0  0  0  0  0  0  0
   28.5450  -28.4090   20.1820 O   0  0  0  0  0  0  0  0  0  0  0  0
   28.8500  -26.0840   20.7150 C   0  0  2  0  0  0  0  0  0  0  0  0
   27.7330  -25.3720   21.3690 N   0  0  0  0  0  0  0  0  0  0  0  0
   27.3710  -24.0600   21.2010 C   0  0  0  0  0  0  0  0  0  0  0  0
   26.2950  -23.7980   21.9760 N   0  0  0  0  0  0  0  0  0  0  0  0
   25.9640  -24.9260   22.6400 C   0  0  0  0  0  0  0  0  0  0  0  0
   24.9590  -25.2150   23.5520 C   0  0  0  0  0  0  0  0  0  0  0  0
   24.1000  -24.2660   23.9100 N   0  0  0  0  0  0  0  0  0  0  0  0
   24.8590  -26.4850   24.0790 N   0  0  0  0  0  0  0  0  0  0  0  0
   25.7590  -27.4590   23.6960 C   0  0  0  0  0  0  0  0  0  0  0  0
   26.7560  -27.1640   22.7890 N   0  0  0  0  0  0  0  0  0  0  0  0
   26.8580  -25.9190   22.2690 C   0  0  0  0  0  0  0  0  0  0  0  0
   28.9310  -21.0354   13.3814 H   0  0  0  0  0  0  0  0  0  0  0  0
   28.7901  -22.6526   13.0081 H   0  0  0  0  0  0  0  0  0  0  0  0
   31.0100  -21.4101   14.4127 H   0  0  0  0  0  0  0  0  0  0  0  0
   28.7864  -21.6390   15.6208 H   0  0  0  0  0  0  0  0  0  0  0  0
   30.1959  -22.3819   16.3820 H   0  0  0  0  0  0  0  0  0  0  0  0
   29.4856  -24.5051   15.2079 H   0  0  0  0  0  0  0  0  0  0  0  0
   27.9318  -23.6595   14.9787 H   0  0  0  0  0  0  0  0  0  0  0  0
   30.0472  -24.0160   12.5197 H   0  0  0  0  0  0  0  0  0  0  0  0
   30.4466  -23.7754   17.9903 H   0  0  0  0  0  0  0  0  0  0  0  0
   30.4443  -25.0616   16.7796 H   0  0  0  0  0  0  0  0  0  0  0  0
   31.0722  -26.0457   18.7854 H   0  0  0  0  0  0  0  0  0  0  0  0
   28.5044  -26.7202   17.6068 H   0  0  0  0  0  0  0  0  0  0  0  0
   30.5142  -28.1988   18.9356 H   0  0  0  0  0  0  0  0  0  0  0  0
   27.2780  -26.9781   19.5465 H   0  0  0  0  0  0  0  0  0  0  0  0
   29.4929  -28.5432   20.3381 H   0  0  0  0  0  0  0  0  0  0  0  0
   29.4083  -26.5688   21.4884 H   0  0  0  0  0  0  0  0  0  0  0  0
   27.8437  -23.3822   20.5828 H   0  0  0  0  0  0  0  0  0  0  0  0
   24.1785  -23.3617   23.5288 H   0  0  0  0  0  0  0  0  0  0  0  0
   23.3852  -24.4674   24.5563 H   0  0  0  0  0  0  0  0  0  0  0  0
   25.6860  -28.4104   24.0891 H   0  0  0  0  0  0  0  0  0  0  0  0
  1  2  1  0  0  0  0
  1 27  1  0  0  0  0
  1 28  1  0  0  0  0
  2  3  1  0  0  0  0
  2  6  1  0  0  0  0
  2 29  1  1  0  0  0
  3  4  1  0  0  0  0
  3 30  1  0  0  0  0
  3 31  1  0  0  0  0
  4  5  1  0  0  0  0
  4 32  1  0  0  0  0
  4 33  1  0  0  0  0
  5  9  1  0  0  0  0
  6  7  2  0  0  0  0
  6  8  1  0  0  0  0
  8 34  1  0  0  0  0
  9 10  1  0  0  0  0
  9 35  1  0  0  0  0
  9 36  1  0  0  0  0
 10 11  1  0  0  0  0
 10 12  1  0  0  0  0
 10 37  1  1  0  0  0
 11 16  1  0  0  0  0
 12 13  1  0  0  0  0
 12 14  1  0  0  0  0
 12 38  1  6  0  0  0
 13 39  1  0  0  0  0
 14 15  1  0  0  0  0
 14 16  1  0  0  0  0
 14 40  1  6  0  0  0
 15 41  1  0  0  0  0
 16 17  1  0  0  0  0
 16 42  1  1  0  0  0
 17 18  1  0  0  0  0
 17 26  1  0  0  0  0
 18 19  2  0  0  0  0
 18 43  1  0  0  0  0
 19 20  1  0  0  0  0
 20 21  2  0  0  0  0
 20 26  1  0  0  0  0
 21 22  1  0  0  0  0
 21 23  1  0  0  0  0
 22 44  1  0  0  0  0
 22 45  1  0  0  0  0
 23 24  2  0  0  0  0
 24 25  1  0  0  0  0
 24 46  1  0  0  0  0
 25 26  2  0  0  0  0
M  END
$$$$
