2EEU_HPA_A_90
 OpenBabel10091713573D
Coordinates from PDB:2EEU:A:90 Model:1 without hydrogens
 14 15  0  0  0  0  0  0  0  0999 V2000
   12.1830   11.2530    9.2200 N   0  0  0  0  0  0  0  0  0  0  0  0
   11.8210   12.5670    9.4390 C   0  0  0  0  0  0  0  0  0  0  0  0
   11.3250   13.3400    8.4650 N   0  0  0  0  0  0  0  0  0  0  0  0
   11.2250   12.6980    7.2670 C   0  0  0  0  0  0  0  0  0  0  0  0
   11.5710   11.3860    6.9810 C   0  0  0  0  0  0  0  0  0  0  0  0
   12.0960   10.5590    8.0110 C   0  0  0  0  0  0  0  0  0  0  0  0
   12.4620    9.3840    7.9800 O   0  0  0  0  0  0  0  0  0  0  0  0
   11.3100   11.1480    5.6530 N   0  0  0  0  0  0  0  0  0  0  0  0
   10.8130   12.3010    5.1470 C   0  0  0  0  0  0  0  0  0  0  0  0
   10.7490   13.2760    6.1150 N   0  0  0  0  0  0  0  0  0  0  0  0
   12.5375   10.7559    9.9923 H   0  0  0  0  0  0  0  0  0  0  0  0
   11.9364   12.9662   10.3837 H   0  0  0  0  0  0  0  0  0  0  0  0
   11.4557   10.3051    5.1656 H   0  0  0  0  0  0  0  0  0  0  0  0
   10.5210   12.4311    4.1657 H   0  0  0  0  0  0  0  0  0  0  0  0
  1  2  1  0  0  0  0
  1  6  1  0  0  0  0
  1 11  1  0  0  0  0
  2  3  2  0  0  0  0
  2 12  1  0  0  0  0
  3  4  1  0  0  0  0
  4  5  2  0  0  0  0
  4 10  1  0  0  0  0
  5  6  1  0  0  0  0
  5  8  1  0  0  0  0
  6  7  2  0  0  0  0
  8  9  1  0  0  0  0
  8 13  1  0  0  0  0
  9 10  2  0  0  0  0
  9 14  1  0  0  0  0
M  END
$$$$
