2PWT_LHA_A_51
 OpenBabel03221817273D

125129  0  0  1  0  0  0  0  0999 V2000
    0.1239    8.4406    7.6015 C   0  0  2  0  0  0  0  0  0  0  0  0
    0.0652    7.4915    8.1428 H   0  0  0  0  0  0  0  0  0  0  0  0
    0.2336    8.1359    6.2025 O   0  0  0  0  0  0  0  0  0  0  0  0
    1.4039    7.4316    5.7482 C   0  0  2  0  0  0  0  0  0  0  0  0
    1.2286    7.2792    4.6820 H   0  0  0  0  0  0  0  0  0  0  0  0
    1.5072    6.0034    6.3054 C   0  0  2  0  0  0  0  0  0  0  0  0
    1.7264    6.0281    7.3773 H   0  0  0  0  0  0  0  0  0  0  0  0
    2.6292    5.2850    5.5518 C   0  0  0  0  0  0  0  0  0  0  0  0
    3.9951    5.9421    5.8063 C   0  0  1  0  0  0  0  0  0  0  0  0
    4.2713    5.8058    6.8584 H   0  0  0  0  0  0  0  0  0  0  0  0
    4.9945    5.1692    5.0341 N   0  0  0  0  0  0  0  0  0  0  0  0
    6.2454    5.6004    4.6589 C   0  0  0  0  0  0  0  0  0  0  0  0
    6.7266    6.7030    4.9078 O   0  0  0  0  0  0  0  0  0  0  0  0
    7.0414    4.5699    3.8414 C   0  0  1  0  0  0  0  0  0  0  0  0
    8.0224    4.9928    3.6071 H   0  0  0  0  0  0  0  0  0  0  0  0
    7.2327    3.4041    4.6439 O   0  0  0  0  0  0  0  0  0  0  0  0
    6.3142    4.1753    2.5545 C   0  0  0  0  0  0  0  0  0  0  0  0
    6.0053    5.3739    1.6572 C   0  0  0  0  0  0  0  0  0  0  0  0
    5.2871    4.9350    0.4651 N   0  0  0  0  0  0  0  0  0  0  0  0
    3.9876    7.4577    5.4606 C   0  0  1  0  0  0  0  0  0  0  0  0
    4.1719    7.5759    4.3911 H   0  0  0  0  0  0  0  0  0  0  0  0
    2.7200    8.2234    5.8904 C   0  0  1  0  0  0  0  0  0  0  0  0
    2.8821    8.3949    6.9560 H   0  0  0  0  0  0  0  0  0  0  0  0
    2.6218    9.5674    5.3514 O   0  0  0  0  0  0  0  0  0  0  0  0
    2.7218    9.7643    3.9424 C   0  0  2  0  0  0  0  0  0  0  0  0
    3.6311    9.2982    3.5590 H   0  0  0  0  0  0  0  0  0  0  0  0
    2.9021   11.1722    3.7012 O   0  0  0  0  0  0  0  0  0  0  0  0
    1.6514   11.7233    3.2648 C   0  0  1  0  0  0  0  0  0  0  0  0
    1.9043   12.5190    2.5582 H   0  0  0  0  0  0  0  0  0  0  0  0
    0.8414   10.6009    2.6273 C   0  0  2  0  0  0  0  0  0  0  0  0
   -0.2062   10.6310    2.9446 H   0  0  0  0  0  0  0  0  0  0  0  0
    1.4663    9.3219    3.1776 C   0  0  1  0  0  0  0  0  0  0  0  0
    0.7222    8.9068    3.8518 H   0  0  0  0  0  0  0  0  0  0  0  0
    1.8261    8.3137    2.2115 O   0  0  0  0  0  0  0  0  0  0  0  0
    0.6896    7.6822    1.6166 C   0  0  0  0  0  0  0  0  0  0  0  0
    1.1285    6.7356    0.4883 C   0  0  0  0  0  0  0  0  0  0  0  0
   -0.0617    6.2056   -0.1938 N   0  0  0  0  0  0  0  0  0  0  0  0
    0.2468    5.2725   -1.2831 C   0  0  0  0  0  0  0  0  0  0  0  0
    0.8804    3.9624   -0.7992 C   0  0  0  0  0  0  0  0  0  0  0  0
    1.0628    2.9629   -1.9152 C   0  0  0  0  0  0  0  0  0  0  0  0
    2.2181    2.9921   -2.7075 C   0  0  0  0  0  0  0  0  0  0  0  0
    2.4048    2.0493   -3.7187 C   0  0  0  0  0  0  0  0  0  0  0  0
    1.4370    1.0734   -3.9500 C   0  0  0  0  0  0  0  0  0  0  0  0
    0.2763    1.0468   -3.1786 C   0  0  0  0  0  0  0  0  0  0  0  0
    0.0864    1.9906   -2.1683 C   0  0  0  0  0  0  0  0  0  0  0  0
    0.8931   10.5871    1.2069 O   0  0  0  0  0  0  0  0  0  0  0  0
    0.2246   11.6364    0.5298 C   0  0  2  0  0  0  0  0  0  0  0  0
    0.7943   12.5509    0.7199 H   0  0  0  0  0  0  0  0  0  0  0  0
   -1.2787   11.8669    0.8895 C   0  0  2  0  0  0  0  0  0  0  0  0
   -1.3689   12.1135    1.9521 H   0  0  0  0  0  0  0  0  0  0  0  0
   -2.1206   10.6673    0.6512 N   0  0  0  0  0  0  0  0  0  0  0  0
   -1.7592   13.0835    0.0599 C   0  0  1  0  0  0  0  0  0  0  0  0
   -2.8393   13.1991    0.2125 H   0  0  0  0  0  0  0  0  0  0  0  0
   -1.1807   14.2900    0.5715 O   0  0  0  0  0  0  0  0  0  0  0  0
   -1.4799   12.9048   -1.4469 C   0  0  2  0  0  0  0  0  0  0  0  0
   -1.6525   13.8535   -1.9669 H   0  0  0  0  0  0  0  0  0  0  0  0
   -2.3953   11.9434   -1.9941 O   0  0  0  0  0  0  0  0  0  0  0  0
   -0.0206   12.4519   -1.6926 C   0  0  1  0  0  0  0  0  0  0  0  0
    0.6670   13.2709   -1.4435 H   0  0  0  0  0  0  0  0  0  0  0  0
    0.3197   11.3359   -0.8647 O   0  0  0  0  0  0  0  0  0  0  0  0
    0.2544   12.0174   -3.1419 C   0  0  0  0  0  0  0  0  0  0  0  0
    0.0541   13.0905   -4.1147 N   0  0  0  0  0  0  0  0  0  0  0  0
    0.9507   12.3420    4.4778 C   0  0  0  0  0  0  0  0  0  0  0  0
    1.7060   13.4657    4.9322 O   0  0  0  0  0  0  0  0  0  0  0  0
    5.0716    8.1067    6.1564 O   0  0  0  0  0  0  0  0  0  0  0  0
    0.2338    5.2761    6.1300 N   0  0  0  0  0  0  0  0  0  0  0  0
   -1.2037    9.2441    7.8189 C   0  0  2  0  0  0  0  0  0  0  0  0
   -2.0445    8.5988    7.5391 H   0  0  0  0  0  0  0  0  0  0  0  0
   -1.2973   10.4517    6.9504 N   0  0  0  0  0  0  0  0  0  0  0  0
   -1.3076    9.6299    9.3144 C   0  0  1  0  0  0  0  0  0  0  0  0
   -2.1632   10.3054    9.4330 H   0  0  0  0  0  0  0  0  0  0  0  0
   -1.6080    8.5133   10.1565 O   0  0  0  0  0  0  0  0  0  0  0  0
   -0.0439   10.3596    9.8095 C   0  0  2  0  0  0  0  0  0  0  0  0
   -0.0861   10.5152   10.8928 H   0  0  0  0  0  0  0  0  0  0  0  0
    0.0444   11.6593    9.2006 O   0  0  0  0  0  0  0  0  0  0  0  0
    1.2363    9.5932    9.4430 C   0  0  2  0  0  0  0  0  0  0  0  0
    2.0830   10.2890    9.5020 H   0  0  0  0  0  0  0  0  0  0  0  0
    1.2292    9.1930    8.0692 O   0  0  0  0  0  0  0  0  0  0  0  0
    1.5580    8.4423   10.4130 C   0  0  0  0  0  0  0  0  0  0  0  0
    2.7381    7.7374   10.0310 O   0  0  0  0  0  0  0  0  0  0  0  0
    2.4209    5.2981    4.4696 H   0  0  0  0  0  0  0  0  0  0  0  0
    2.6598    4.2253    5.8334 H   0  0  0  0  0  0  0  0  0  0  0  0
    4.8765    4.1625    5.0139 H   0  0  0  0  0  0  0  0  0  0  0  0
    7.7862    3.6806    5.3977 H   0  0  0  0  0  0  0  0  0  0  0  0
    5.3885    3.6371    2.7951 H   0  0  0  0  0  0  0  0  0  0  0  0
    6.9386    3.4527    2.0133 H   0  0  0  0  0  0  0  0  0  0  0  0
    6.9318    5.8786    1.3625 H   0  0  0  0  0  0  0  0  0  0  0  0
    5.3790    6.1038    2.1803 H   0  0  0  0  0  0  0  0  0  0  0  0
    5.8557    4.2719   -0.0601 H   0  0  0  0  0  0  0  0  0  0  0  0
    5.1360    5.7351   -0.1499 H   0  0  0  0  0  0  0  0  0  0  0  0
    0.0007    8.4263    1.2098 H   0  0  0  0  0  0  0  0  0  0  0  0
    0.1602    7.1134    2.3889 H   0  0  0  0  0  0  0  0  0  0  0  0
    1.7297    5.9346    0.9326 H   0  0  0  0  0  0  0  0  0  0  0  0
    1.7783    7.2682   -0.2175 H   0  0  0  0  0  0  0  0  0  0  0  0
   -0.5716    6.9994   -0.5885 H   0  0  0  0  0  0  0  0  0  0  0  0
    0.8735    5.7592   -2.0404 H   0  0  0  0  0  0  0  0  0  0  0  0
   -0.7037    5.0381   -1.7804 H   0  0  0  0  0  0  0  0  0  0  0  0
    0.2615    3.5155   -0.0104 H   0  0  0  0  0  0  0  0  0  0  0  0
    1.8603    4.1495   -0.3450 H   0  0  0  0  0  0  0  0  0  0  0  0
    2.9848    3.7429   -2.5293 H   0  0  0  0  0  0  0  0  0  0  0  0
    3.3094    2.0715   -4.3203 H   0  0  0  0  0  0  0  0  0  0  0  0
    1.5883    0.3322   -4.7299 H   0  0  0  0  0  0  0  0  0  0  0  0
   -0.4786    0.2861   -3.3587 H   0  0  0  0  0  0  0  0  0  0  0  0
   -0.8220    1.9563   -1.5709 H   0  0  0  0  0  0  0  0  0  0  0  0
   -2.0044   10.4032   -0.3352 H   0  0  0  0  0  0  0  0  0  0  0  0
   -3.1065   10.9038    0.7583 H   0  0  0  0  0  0  0  0  0  0  0  0
   -0.3094   14.4513    0.1695 H   0  0  0  0  0  0  0  0  0  0  0  0
   -3.2983   12.2256   -1.7647 H   0  0  0  0  0  0  0  0  0  0  0  0
   -0.3659   11.1503   -3.4060 H   0  0  0  0  0  0  0  0  0  0  0  0
    1.2908   11.6647   -3.2120 H   0  0  0  0  0  0  0  0  0  0  0  0
   -0.9386   13.3263   -4.1417 H   0  0  0  0  0  0  0  0  0  0  0  0
    0.2602   12.7173   -5.0430 H   0  0  0  0  0  0  0  0  0  0  0  0
    0.8725   11.6396    5.3126 H   0  0  0  0  0  0  0  0  0  0  0  0
   -0.0471   12.7009    4.2184 H   0  0  0  0  0  0  0  0  0  0  0  0
    2.6097   13.1244    5.0797 H   0  0  0  0  0  0  0  0  0  0  0  0
    5.9018    7.7697    5.7566 H   0  0  0  0  0  0  0  0  0  0  0  0
   -0.5326    5.9490    6.2257 H   0  0  0  0  0  0  0  0  0  0  0  0
    0.1483    4.9427    5.1678 H   0  0  0  0  0  0  0  0  0  0  0  0
   -0.4447   11.0038    7.1124 H   0  0  0  0  0  0  0  0  0  0  0  0
   -2.0734   11.0419    7.2432 H   0  0  0  0  0  0  0  0  0  0  0  0
   -1.2429    7.6915    9.7870 H   0  0  0  0  0  0  0  0  0  0  0  0
   -0.8051   12.1167    9.3197 H   0  0  0  0  0  0  0  0  0  0  0  0
    1.7140    8.8377   11.4235 H   0  0  0  0  0  0  0  0  0  0  0  0
    0.7629    7.6989   10.4659 H   0  0  0  0  0  0  0  0  0  0  0  0
    3.4358    8.3949    9.8530 H   0  0  0  0  0  0  0  0  0  0  0  0
  1 67  1  1  0  0  0
  1 78  1  0  0  0  0
  1  3  1  0  0  0  0
  1  2  1  0  0  0  0
  4  6  1  1  0  0  0
  4  5  1  0  0  0  0
  4  3  1  0  0  0  0
  6  7  1  1  0  0  0
  6  8  1  0  0  0  0
  6 66  1  0  0  0  0
  8  9  1  0  0  0  0
  8 81  1  0  0  0  0
  8 82  1  0  0  0  0
  9 20  1  6  0  0  0
  9 11  1  0  0  0  0
  9 10  1  0  0  0  0
 11 12  1  0  0  0  0
 11 83  1  0  0  0  0
 12 13  2  0  0  0  0
 12 14  1  0  0  0  0
 14 15  1  6  0  0  0
 14 16  1  0  0  0  0
 14 17  1  0  0  0  0
 16 84  1  0  0  0  0
 17 18  1  0  0  0  0
 17 85  1  0  0  0  0
 17 86  1  0  0  0  0
 18 19  1  0  0  0  0
 18 87  1  0  0  0  0
 18 88  1  0  0  0  0
 19 89  1  0  0  0  0
 19 90  1  0  0  0  0
 20 21  1  0  0  0  0
 20 22  1  1  0  0  0
 20 65  1  0  0  0  0
 22  4  1  6  0  0  0
 22 24  1  0  0  0  0
 22 23  1  0  0  0  0
 25 27  1  0  0  0  0
 25 32  1  6  0  0  0
 25 26  1  0  0  0  0
 25 24  1  0  0  0  0
 27 28  1  0  0  0  0
 28 29  1  0  0  0  0
 28 30  1  6  0  0  0
 28 63  1  0  0  0  0
 30 32  1  1  0  0  0
 30 46  1  0  0  0  0
 30 31  1  0  0  0  0
 32 34  1  0  0  0  0
 32 33  1  1  0  0  0
 34 35  1  0  0  0  0
 35 36  1  0  0  0  0
 35 91  1  0  0  0  0
 35 92  1  0  0  0  0
 36 37  1  0  0  0  0
 36 93  1  0  0  0  0
 36 94  1  0  0  0  0
 37 38  1  0  0  0  0
 37 95  1  0  0  0  0
 38 39  1  0  0  0  0
 38 96  1  0  0  0  0
 38 97  1  0  0  0  0
 39 40  1  0  0  0  0
 39 98  1  0  0  0  0
 39 99  1  0  0  0  0
 40 41  2  0  0  0  0
 40 45  1  0  0  0  0
 41 42  1  0  0  0  0
 41100  1  0  0  0  0
 42 43  2  0  0  0  0
 42101  1  0  0  0  0
 43 44  1  0  0  0  0
 43102  1  0  0  0  0
 44 45  2  0  0  0  0
 44103  1  0  0  0  0
 45104  1  0  0  0  0
 47 49  1  1  0  0  0
 47 60  1  0  0  0  0
 47 48  1  0  0  0  0
 47 46  1  0  0  0  0
 49 52  1  6  0  0  0
 49 51  1  0  0  0  0
 49 50  1  0  0  0  0
 51105  1  0  0  0  0
 51106  1  0  0  0  0
 52 55  1  6  0  0  0
 52 54  1  0  0  0  0
 52 53  1  0  0  0  0
 54107  1  0  0  0  0
 55 56  1  0  0  0  0
 55 57  1  0  0  0  0
 55 58  1  6  0  0  0
 57108  1  0  0  0  0
 58 59  1  1  0  0  0
 58 60  1  0  0  0  0
 58 61  1  0  0  0  0
 61 62  1  0  0  0  0
 61109  1  0  0  0  0
 61110  1  0  0  0  0
 62111  1  0  0  0  0
 62112  1  0  0  0  0
 63 64  1  0  0  0  0
 63113  1  0  0  0  0
 63114  1  0  0  0  0
 64115  1  0  0  0  0
 65116  1  0  0  0  0
 66117  1  0  0  0  0
 66118  1  0  0  0  0
 67 70  1  1  0  0  0
 67 69  1  0  0  0  0
 67 68  1  0  0  0  0
 69119  1  0  0  0  0
 69120  1  0  0  0  0
 70 73  1  1  0  0  0
 70 72  1  0  0  0  0
 70 71  1  0  0  0  0
 72121  1  0  0  0  0
 73 74  1  0  0  0  0
 73 75  1  0  0  0  0
 73 76  1  6  0  0  0
 75122  1  0  0  0  0
 76 78  1  0  0  0  0
 76 79  1  0  0  0  0
 76 77  1  1  0  0  0
 79 80  1  0  0  0  0
 79123  1  0  0  0  0
 79124  1  0  0  0  0
 80125  1  0  0  0  0
M  END
$$$$
