2GUN_SPM_B_521
 OpenBabel10091713573D
Coordinates from PDB:2GUN:B:521 Model:1 without hydrogens
 40 39  0  0  0  0  0  0  0  0999 V2000
   12.3400   12.5940  -13.1040 N   0  0  0  0  0  0  0  0  0  0  0  0
   13.2080   11.3850  -13.0030 C   0  0  0  0  0  0  0  0  0  0  0  0
   14.3900   11.4790  -13.9520 C   0  0  0  0  0  0  0  0  0  0  0  0
   15.1790   12.7660  -13.7170 C   0  0  0  0  0  0  0  0  0  0  0  0
   16.2680   12.9350  -14.6890 N   0  0  0  0  0  0  0  0  0  0  0  0
   17.2690   13.8980  -14.2230 C   0  0  0  0  0  0  0  0  0  0  0  0
   16.7010   15.2970  -14.0080 C   0  0  0  0  0  0  0  0  0  0  0  0
   16.0840   15.8530  -15.2780 C   0  0  0  0  0  0  0  0  0  0  0  0
   15.6900   17.3170  -15.1110 C   0  0  0  0  0  0  0  0  0  0  0  0
   15.2480   17.9000  -16.3740 N   0  0  0  0  0  0  0  0  0  0  0  0
   15.5040   19.3410  -16.4050 C   0  0  0  0  0  0  0  0  0  0  0  0
   17.0020   19.6820  -16.3610 C   0  0  0  0  0  0  0  0  0  0  0  0
   17.2480   21.1710  -16.6510 C   0  0  0  0  0  0  0  0  0  0  0  0
   18.6940   21.5380  -16.6280 N   0  0  0  0  0  0  0  0  0  0  0  0
   11.5560   12.5046  -12.4577 H   0  0  0  0  0  0  0  0  0  0  0  0
   11.9868   12.6804  -14.0570 H   0  0  0  0  0  0  0  0  0  0  0  0
   12.6303   10.5186  -13.2492 H   0  0  0  0  0  0  0  0  0  0  0  0
   13.5805   11.3170  -12.0022 H   0  0  0  0  0  0  0  0  0  0  0  0
   14.0313   11.4674  -14.9600 H   0  0  0  0  0  0  0  0  0  0  0  0
   15.0368   10.6452  -13.7750 H   0  0  0  0  0  0  0  0  0  0  0  0
   15.5971   12.7389  -12.7324 H   0  0  0  0  0  0  0  0  0  0  0  0
   14.5056   13.5896  -13.8317 H   0  0  0  0  0  0  0  0  0  0  0  0
   15.8756   13.2670  -15.5700 H   0  0  0  0  0  0  0  0  0  0  0  0
   18.0502   13.9563  -14.9518 H   0  0  0  0  0  0  0  0  0  0  0  0
   17.6280   13.5512  -13.2765 H   0  0  0  0  0  0  0  0  0  0  0  0
   17.4902   15.9470  -13.6924 H   0  0  0  0  0  0  0  0  0  0  0  0
   15.9346   15.2353  -13.2639 H   0  0  0  0  0  0  0  0  0  0  0  0
   15.2112   15.2830  -15.5194 H   0  0  0  0  0  0  0  0  0  0  0  0
   16.8096   15.7870  -16.0616 H   0  0  0  0  0  0  0  0  0  0  0  0
   16.5355   17.8657  -14.7519 H   0  0  0  0  0  0  0  0  0  0  0  0
   14.8786   17.3688  -14.4154 H   0  0  0  0  0  0  0  0  0  0  0  0
   14.2473   17.7366  -16.4846 H   0  0  0  0  0  0  0  0  0  0  0  0
   15.0262   19.7912  -15.5601 H   0  0  0  0  0  0  0  0  0  0  0  0
   15.1155   19.7169  -17.3284 H   0  0  0  0  0  0  0  0  0  0  0  0
   17.5141   19.0954  -17.0949 H   0  0  0  0  0  0  0  0  0  0  0  0
   17.3674   19.4658  -15.3788 H   0  0  0  0  0  0  0  0  0  0  0  0
   16.7371   21.7514  -15.9114 H   0  0  0  0  0  0  0  0  0  0  0  0
   16.8829   21.3698  -17.6369 H   0  0  0  0  0  0  0  0  0  0  0  0
   19.0752   21.3602  -15.6987 H   0  0  0  0  0  0  0  0  0  0  0  0
   18.7974   22.5272  -16.8544 H   0  0  0  0  0  0  0  0  0  0  0  0
  1  2  1  0  0  0  0
  1 15  1  0  0  0  0
  1 16  1  0  0  0  0
  2  3  1  0  0  0  0
  2 17  1  0  0  0  0
  2 18  1  0  0  0  0
  3  4  1  0  0  0  0
  3 19  1  0  0  0  0
  3 20  1  0  0  0  0
  4  5  1  0  0  0  0
  4 21  1  0  0  0  0
  4 22  1  0  0  0  0
  5  6  1  0  0  0  0
  5 23  1  0  0  0  0
  6  7  1  0  0  0  0
  6 24  1  0  0  0  0
  6 25  1  0  0  0  0
  7  8  1  0  0  0  0
  7 26  1  0  0  0  0
  7 27  1  0  0  0  0
  8  9  1  0  0  0  0
  8 28  1  0  0  0  0
  8 29  1  0  0  0  0
  9 10  1  0  0  0  0
  9 30  1  0  0  0  0
  9 31  1  0  0  0  0
 10 11  1  0  0  0  0
 10 32  1  0  0  0  0
 11 12  1  0  0  0  0
 11 33  1  0  0  0  0
 11 34  1  0  0  0  0
 12 13  1  0  0  0  0
 12 35  1  0  0  0  0
 12 36  1  0  0  0  0
 13 14  1  0  0  0  0
 13 37  1  0  0  0  0
 13 38  1  0  0  0  0
 14 39  1  0  0  0  0
 14 40  1  0  0  0  0
M  END
$$$$
