2KU0_ISI_A_39
 OpenBabel10091713583D
Coordinates from PDB:2KU0:A:39 Model:1 without hydrogens
 50 52  0  0  1  0  0  0  0  0999 V2000
    5.5820   -8.8480    4.5750 C   0  0  0  0  0  0  0  0  0  0  0  0
    0.7510   -5.6120    5.3620 N   0  0  0  0  0  0  0  0  0  0  0  0
    4.1860   -8.8340    4.6410 C   0  0  0  0  0  0  0  0  0  0  0  0
    2.6900   -1.0070    2.9890 N   0  0  0  0  0  0  0  0  0  0  0  0
    3.5320   -7.6260    4.8760 C   0  0  0  0  0  0  0  0  0  0  0  0
   10.3310   -6.7110    5.4320 N   0  0  0  0  0  0  0  0  0  0  0  0
    4.2190   -6.4490    5.0360 C   0  0  0  0  0  0  0  0  0  0  0  0
    5.6160   -6.4590    4.9950 C   0  0  0  0  0  0  0  0  0  0  0  0
    6.2680   -7.6500    4.7450 C   0  0  0  0  0  0  0  0  0  0  0  0
    2.2180   -7.4490    4.9890 N   0  0  0  0  0  0  0  0  0  0  0  0
    2.0990   -6.1300    5.2270 C   0  0  0  0  0  0  0  0  0  0  0  0
    3.3200   -5.4620    5.2380 N   0  0  0  0  0  0  0  0  0  0  0  0
    6.6480   -5.3950    5.2390 C   0  0  0  0  0  0  0  0  0  0  0  0
    7.9660   -6.0960    4.7890 C   0  0  2  0  0  0  0  0  0  0  0  0
    7.6280   -7.5080    4.7040 O   0  0  0  0  0  0  0  0  0  0  0  0
    3.5240   -4.0070    5.3040 C   0  0  0  0  0  0  0  0  0  0  0  0
    9.1000   -5.9100    5.8060 C   0  0  0  0  0  0  0  0  0  0  0  0
    3.2580   -3.2820    3.9610 C   0  0  0  0  0  0  0  0  0  0  0  0
    2.5190    0.4460    3.3580 C   0  0  0  0  0  0  0  0  0  0  0  0
    3.6300   -1.0970    1.8070 C   0  0  0  0  0  0  0  0  0  0  0  0
    3.2540   -1.7490    4.1840 C   0  0  0  0  0  0  0  0  0  0  0  0
   11.0670   -5.9050    4.3910 C   0  0  0  0  0  0  0  0  0  0  0  0
   11.2210   -6.7640    6.6390 C   0  0  0  0  0  0  0  0  0  0  0  0
    6.0928   -9.7282    4.4038 H   0  0  0  0  0  0  0  0  0  0  0  0
   -0.0177   -6.2264    5.3324 H   0  0  0  0  0  0  0  0  0  0  0  0
    0.6047   -4.6460    5.4833 H   0  0  0  0  0  0  0  0  0  0  0  0
    3.6473   -9.7055    4.5175 H   0  0  0  0  0  0  0  0  0  0  0  0
    6.6875   -5.1242    6.2734 H   0  0  0  0  0  0  0  0  0  0  0  0
    6.4509   -4.4813    4.7182 H   0  0  0  0  0  0  0  0  0  0  0  0
    8.3161   -5.6826    3.8663 H   0  0  0  0  0  0  0  0  0  0  0  0
    4.5367   -3.8202    5.5945 H   0  0  0  0  0  0  0  0  0  0  0  0
    2.8201   -3.6232    6.0126 H   0  0  0  0  0  0  0  0  0  0  0  0
    9.3612   -4.8732    5.8472 H   0  0  0  0  0  0  0  0  0  0  0  0
    8.7536   -6.2584    6.7565 H   0  0  0  0  0  0  0  0  0  0  0  0
    2.3080   -3.5872    3.5746 H   0  0  0  0  0  0  0  0  0  0  0  0
    4.0291   -3.5356    3.2639 H   0  0  0  0  0  0  0  0  0  0  0  0
    1.8557    0.5261    4.1938 H   0  0  0  0  0  0  0  0  0  0  0  0
    2.1099    0.9796    2.5256 H   0  0  0  0  0  0  0  0  0  0  0  0
    3.4701    0.8627    3.6162 H   0  0  0  0  0  0  0  0  0  0  0  0
    3.2113   -0.5669    0.9772 H   0  0  0  0  0  0  0  0  0  0  0  0
    3.7703   -2.1237    1.5402 H   0  0  0  0  0  0  0  0  0  0  0  0
    4.5732   -0.6641    2.0676 H   0  0  0  0  0  0  0  0  0  0  0  0
    2.6570   -1.5258    5.0434 H   0  0  0  0  0  0  0  0  0  0  0  0
    4.2659   -1.4312    4.3250 H   0  0  0  0  0  0  0  0  0  0  0  0
   10.4708   -5.8373    3.5051 H   0  0  0  0  0  0  0  0  0  0  0  0
   11.9957   -6.3837    4.1602 H   0  0  0  0  0  0  0  0  0  0  0  0
   11.2567   -4.9222    4.7692 H   0  0  0  0  0  0  0  0  0  0  0  0
   10.7414   -7.3284    7.4113 H   0  0  0  0  0  0  0  0  0  0  0  0
   11.4086   -5.7700    6.9877 H   0  0  0  0  0  0  0  0  0  0  0  0
   12.1476   -7.2315    6.3787 H   0  0  0  0  0  0  0  0  0  0  0  0
  1  3  2  0  0  0  0
  1  9  1  0  0  0  0
  1 24  1  0  0  0  0
  2 25  1  0  0  0  0
  2 26  1  0  0  0  0
  3  5  1  0  0  0  0
  3 27  1  0  0  0  0
  4 19  1  0  0  0  0
  4 21  1  0  0  0  0
  5 10  1  0  0  0  0
  5  7  2  0  0  0  0
  6 17  1  0  0  0  0
  6 23  1  0  0  0  0
  7 12  1  0  0  0  0
  8  7  1  0  0  0  0
  8 13  1  0  0  0  0
  9  8  2  0  0  0  0
 10 11  2  0  0  0  0
 11  2  1  0  0  0  0
 11 12  1  0  0  0  0
 12 16  1  0  0  0  0
 13 28  1  0  0  0  0
 13 29  1  0  0  0  0
 14 13  1  0  0  0  0
 14 17  1  0  0  0  0
 14 30  1  6  0  0  0
 15  9  1  0  0  0  0
 15 14  1  0  0  0  0
 16 31  1  0  0  0  0
 16 32  1  0  0  0  0
 17 33  1  0  0  0  0
 17 34  1  0  0  0  0
 18 16  1  0  0  0  0
 18 21  1  0  0  0  0
 18 35  1  0  0  0  0
 18 36  1  0  0  0  0
 19 37  1  0  0  0  0
 19 38  1  0  0  0  0
 19 39  1  0  0  0  0
 20  4  1  0  0  0  0
 20 40  1  0  0  0  0
 20 41  1  0  0  0  0
 20 42  1  0  0  0  0
 21 43  1  0  0  0  0
 21 44  1  0  0  0  0
 22  6  1  0  0  0  0
 22 45  1  0  0  0  0
 22 46  1  0  0  0  0
 22 47  1  0  0  0  0
 23 48  1  0  0  0  0
 23 49  1  0  0  0  0
 23 50  1  0  0  0  0
M  END
$$$$
