3GCA_PQ0_A_34
 OpenBabel03221817303D

 18 19  0  0  0  0  0  0  0  0999 V2000
    2.1134   -0.6439   -0.0198 N   0  0  0  0  0  0  0  0  0  0  0  0
    3.0101   -1.0965   -0.0634 H   0  0  0  0  0  0  0  0  0  0  0  0
    2.0276    0.7326   -0.0580 C   0  0  0  0  0  0  0  0  0  0  0  0
    0.8976    1.3857   -0.0279 N   0  0  0  0  0  0  0  0  0  0  0  0
   -0.1919    0.5856    0.0076 C   0  0  0  0  0  0  0  0  0  0  0  0
   -0.2318   -0.7900    0.0188 C   0  0  0  0  0  0  0  0  0  0  0  0
    1.0231   -1.4936    0.0080 C   0  0  0  0  0  0  0  0  0  0  0  0
    1.1339   -2.7129    0.0143 O   0  0  0  0  0  0  0  0  0  0  0  0
   -1.5871   -1.1845    0.0220 C   0  0  0  0  0  0  0  0  0  0  0  0
   -2.1160   -2.5142    0.0178 C   0  0  0  0  0  0  0  0  0  0  0  0
   -2.5811   -3.5771    0.0134 N   0  0  0  0  0  0  0  0  0  0  0  0
   -2.3408   -0.0218    0.0186 C   0  0  0  0  0  0  0  0  0  0  0  0
   -1.4758    1.0493    0.0134 N   0  0  0  0  0  0  0  0  0  0  0  0
   -1.7298    2.0284    0.0019 H   0  0  0  0  0  0  0  0  0  0  0  0
    3.2015    1.4063   -0.1350 N   0  0  0  0  0  0  0  0  0  0  0  0
   -3.4121    0.1370    0.0136 H   0  0  0  0  0  0  0  0  0  0  0  0
    4.0508    0.9713    0.1946 H   0  0  0  0  0  0  0  0  0  0  0  0
    3.1235    2.3974    0.0677 H   0  0  0  0  0  0  0  0  0  0  0  0
  1  2  1  0  0  0  0
  1  3  1  0  0  0  0
  1  7  1  0  0  0  0
  3  4  2  0  0  0  0
  3 15  1  0  0  0  0
  4  5  1  0  0  0  0
  5  6  2  0  0  0  0
  5 13  1  0  0  0  0
  6  7  1  0  0  0  0
  6  9  1  0  0  0  0
  7  8  2  0  0  0  0
  9 10  1  0  0  0  0
  9 12  2  0  0  0  0
 10 11  3  0  0  0  0
 12 13  1  0  0  0  0
 12 16  1  0  0  0  0
 13 14  1  0  0  0  0
 15 17  1  0  0  0  0
 15 18  1  0  0  0  0
M  END
$$$$
