ligand
 OpenBabel03221817313D

 24 25  0  0  1  0  0  0  0  0999 V2000
    1.1830    0.0032   -0.2373 N   0  0  0  0  0  0  0  0  0  0  0  0
    2.5329    0.0533   -0.1217 C   0  0  0  0  0  0  0  0  0  0  0  0
    3.1375    1.1942   -0.0617 N   0  0  0  0  0  0  0  0  0  0  0  0
    4.5054    1.2048    0.0390 C   0  0  0  0  0  0  0  0  0  0  0  0
    5.2634    0.0766    0.0238 C   0  0  0  0  0  0  0  0  0  0  0  0
    4.5396   -1.2236   -0.0545 C   0  0  0  0  0  0  0  0  0  0  0  0
    5.1321   -2.2977   -0.1372 O   0  0  0  0  0  0  0  0  0  0  0  0
    3.1810   -1.1363   -0.0733 N   0  0  0  0  0  0  0  0  0  0  0  0
    6.6673    0.0803   -0.0258 N   0  0  0  0  0  0  0  0  0  0  0  0
    7.3260    1.3180   -0.4768 C   0  0  2  0  0  0  0  0  0  0  0  0
    8.3732    1.2980   -0.1552 H   0  0  0  0  0  0  0  0  0  0  0  0
    6.6190    2.5456    0.1716 C   0  0  0  0  0  0  0  0  0  0  0  0
    5.1642    2.4296    0.0884 N   0  0  0  0  0  0  0  0  0  0  0  0
    7.2893    1.4042   -2.0053 C   0  0  0  0  0  0  0  0  0  0  0  0
    0.7596    0.9089   -0.0566 H   0  0  0  0  0  0  0  0  0  0  0  0
    0.7136   -0.7523    0.2455 H   0  0  0  0  0  0  0  0  0  0  0  0
    2.6811   -2.0016   -0.1853 H   0  0  0  0  0  0  0  0  0  0  0  0
    7.0288   -0.7982   -0.3962 H   0  0  0  0  0  0  0  0  0  0  0  0
    6.9504    3.4805   -0.2916 H   0  0  0  0  0  0  0  0  0  0  0  0
    6.8917    2.5908    1.2328 H   0  0  0  0  0  0  0  0  0  0  0  0
    4.6030    3.2136   -0.2148 H   0  0  0  0  0  0  0  0  0  0  0  0
    6.2638    1.4244   -2.3919 H   0  0  0  0  0  0  0  0  0  0  0  0
    7.7905    0.5419   -2.4560 H   0  0  0  0  0  0  0  0  0  0  0  0
    7.7924    2.3123   -2.3526 H   0  0  0  0  0  0  0  0  0  0  0  0
  1  2  1  0  0  0  0
  1 15  1  0  0  0  0
  1 16  1  0  0  0  0
  2  3  2  0  0  0  0
  2  8  1  0  0  0  0
  3  4  1  0  0  0  0
  4  5  2  0  0  0  0
  4 13  1  0  0  0  0
  5  6  1  0  0  0  0
  5  9  1  0  0  0  0
  6  7  2  0  0  0  0
  6  8  1  0  0  0  0
  8 17  1  0  0  0  0
  9 10  1  0  0  0  0
  9 18  1  0  0  0  0
 10 12  1  0  0  0  0
 10 14  1  0  0  0  0
 10 11  1  1  0  0  0
 12 13  1  0  0  0  0
 12 19  1  0  0  0  0
 12 20  1  0  0  0  0
 13 21  1  0  0  0  0
 14 22  1  0  0  0  0
 14 23  1  0  0  0  0
 14 24  1  0  0  0  0
M  END
$$$$
