3OWW_GLY_A_89
 OpenBabel03221817303D

 10  9  0  0  0  0  0  0  0  0999 V2000
    0.9631    0.0376    0.1101 N   0  0  0  0  0  0  0  0  0  0  0  0
    2.4391    0.1490   -0.0136 C   0  0  0  0  0  0  0  0  0  0  0  0
    2.9300    1.2864    0.8798 C   0  0  0  0  0  0  0  0  0  0  0  0
    3.9949    1.8676    0.7530 O   0  0  0  0  0  0  0  0  0  0  0  0
    2.0359    1.5554    1.8662 O   0  0  0  0  0  0  0  0  0  0  0  0
    0.6669   -0.7615   -0.4604 H   0  0  0  0  0  0  0  0  0  0  0  0
    0.5490    0.8467   -0.3660 H   0  0  0  0  0  0  0  0  0  0  0  0
    2.7094    0.3529   -1.0526 H   0  0  0  0  0  0  0  0  0  0  0  0
    2.9051   -0.7797    0.3273 H   0  0  0  0  0  0  0  0  0  0  0  0
    1.2716    0.9445    1.7176 H   0  0  0  0  0  0  0  0  0  0  0  0
  1  2  1  0  0  0  0
  1  6  1  0  0  0  0
  1  7  1  0  0  0  0
  2  3  1  0  0  0  0
  2  8  1  0  0  0  0
  2  9  1  0  0  0  0
  3  4  2  0  0  0  0
  3  5  1  0  0  0  0
  5 10  1  0  0  0  0
M  END
$$$$
