3BNQ_PAR_C_101
 OpenBabel03221817283D

 87 90  0  0  1  0  0  0  0  0999 V2000
    4.8567   16.3137    3.0858 C   0  0  2  0  0  0  0  0  0  0  0  0
    4.5022   16.5752    4.0816 H   0  0  0  0  0  0  0  0  0  0  0  0
    3.7314   16.2139    2.2151 O   0  0  0  0  0  0  0  0  0  0  0  0
    2.6543   15.3379    2.6425 C   0  0  2  0  0  0  0  0  0  0  0  0
    1.8176   15.6164    1.9880 H   0  0  0  0  0  0  0  0  0  0  0  0
    2.1744   15.5687    4.1206 C   0  0  2  0  0  0  0  0  0  0  0  0
    3.0181   15.4212    4.8008 H   0  0  0  0  0  0  0  0  0  0  0  0
    1.0852   14.5846    4.5815 C   0  0  0  0  0  0  0  0  0  0  0  0
    1.4858   13.1389    4.2802 C   0  0  1  0  0  0  0  0  0  0  0  0
    2.4343   12.9220    4.7916 H   0  0  0  0  0  0  0  0  0  0  0  0
    0.5355   12.1683    4.8265 N   0  0  0  0  0  0  0  0  0  0  0  0
    1.6967   12.9956    2.7442 C   0  0  1  0  0  0  0  0  0  0  0  0
    0.8178   13.3671    2.2030 H   0  0  0  0  0  0  0  0  0  0  0  0
    2.9473   13.8299    2.3782 C   0  0  1  0  0  0  0  0  0  0  0  0
    3.7393   13.5120    3.0653 H   0  0  0  0  0  0  0  0  0  0  0  0
    3.5042   13.4895    1.1043 O   0  0  0  0  0  0  0  0  0  0  0  0
    2.9200   14.0181   -0.0799 C   0  0  1  0  0  0  0  0  0  0  0  0
    2.7783   15.0943    0.0217 H   0  0  0  0  0  0  0  0  0  0  0  0
    3.9146   13.7177   -1.2121 C   0  0  2  0  0  0  0  0  0  0  0  0
    4.2249   12.6665   -1.1750 H   0  0  0  0  0  0  0  0  0  0  0  0
    5.1081   14.4893   -1.1354 O   0  0  0  0  0  0  0  0  0  0  0  0
    3.0339   13.9677   -2.4288 C   0  0  2  0  0  0  0  0  0  0  0  0
    3.4067   13.5286   -3.3568 H   0  0  0  0  0  0  0  0  0  0  0  0
    2.7694   15.3710   -2.6482 O   0  0  0  0  0  0  0  0  0  0  0  0
    3.8585   16.1959   -3.0849 C   0  0  2  0  0  0  0  0  0  0  0  0
    4.6741   16.1512   -2.3638 H   0  0  0  0  0  0  0  0  0  0  0  0
    3.3537   17.6689   -3.1145 C   0  0  2  0  0  0  0  0  0  0  0  0
    2.9466   17.9222   -2.1291 H   0  0  0  0  0  0  0  0  0  0  0  0
    2.2574   17.8280   -4.1068 N   0  0  0  0  0  0  0  0  0  0  0  0
    4.5584   18.5873   -3.4266 C   0  0  1  0  0  0  0  0  0  0  0  0
    4.1837   19.6109   -3.5491 H   0  0  0  0  0  0  0  0  0  0  0  0
    5.4624   18.6559   -2.3142 O   0  0  0  0  0  0  0  0  0  0  0  0
    5.2764   18.1568   -4.7177 C   0  0  2  0  0  0  0  0  0  0  0  0
    6.2395   18.6768   -4.8000 H   0  0  0  0  0  0  0  0  0  0  0  0
    4.4989   18.5497   -5.8581 O   0  0  0  0  0  0  0  0  0  0  0  0
    5.5338   16.6242   -4.7364 C   0  0  1  0  0  0  0  0  0  0  0  0
    6.3152   16.3886   -4.0010 H   0  0  0  0  0  0  0  0  0  0  0  0
    4.3519   15.8643   -4.3866 O   0  0  0  0  0  0  0  0  0  0  0  0
    6.0338   16.2033   -6.1430 C   0  0  0  0  0  0  0  0  0  0  0  0
    6.4679   14.8095   -6.2042 N   0  0  0  0  0  0  0  0  0  0  0  0
    1.7038   13.3332   -1.9294 C   0  0  2  0  0  0  0  0  0  0  0  0
    0.8399   13.9125   -2.2747 H   0  0  0  0  0  0  0  0  0  0  0  0
    1.6985   13.4055   -0.4675 O   0  0  0  0  0  0  0  0  0  0  0  0
    1.4944   11.8642   -2.3204 C   0  0  0  0  0  0  0  0  0  0  0  0
    2.5452   11.0255   -1.8515 O   0  0  0  0  0  0  0  0  0  0  0  0
    1.8462   11.6251    2.3727 O   0  0  0  0  0  0  0  0  0  0  0  0
    1.6822   16.9407    4.3324 N   0  0  0  0  0  0  0  0  0  0  0  0
    5.7930   17.4714    2.6204 C   0  0  2  0  0  0  0  0  0  0  0  0
    5.2205   18.4071    2.6138 H   0  0  0  0  0  0  0  0  0  0  0  0
    6.3273   17.2592    1.2450 N   0  0  0  0  0  0  0  0  0  0  0  0
    6.9646   17.5835    3.6320 C   0  0  1  0  0  0  0  0  0  0  0  0
    7.6906   18.3078    3.2413 H   0  0  0  0  0  0  0  0  0  0  0  0
    6.5609   18.0900    4.9101 O   0  0  0  0  0  0  0  0  0  0  0  0
    7.6697   16.2250    3.8286 C   0  0  2  0  0  0  0  0  0  0  0  0
    8.3611   16.2786    4.6769 H   0  0  0  0  0  0  0  0  0  0  0  0
    8.4665   15.9041    2.6775 O   0  0  0  0  0  0  0  0  0  0  0  0
    6.6627   15.0798    4.0697 C   0  0  2  0  0  0  0  0  0  0  0  0
    7.1662   14.1239    3.8861 H   0  0  0  0  0  0  0  0  0  0  0  0
    5.5888   15.0990    3.1070 O   0  0  0  0  0  0  0  0  0  0  0  0
    6.1269   15.0404    5.5148 C   0  0  0  0  0  0  0  0  0  0  0  0
    5.0965   14.0602    5.6534 O   0  0  0  0  0  0  0  0  0  0  0  0
    0.1298   14.8164    4.0923 H   0  0  0  0  0  0  0  0  0  0  0  0
    0.9239   14.7083    5.6618 H   0  0  0  0  0  0  0  0  0  0  0  0
   -0.0698   11.8090    4.0931 H   0  0  0  0  0  0  0  0  0  0  0  0
   -0.0663   12.5993    5.5319 H   0  0  0  0  0  0  0  0  0  0  0  0
    5.1128   14.8645   -0.2377 H   0  0  0  0  0  0  0  0  0  0  0  0
    2.4852   17.1996   -4.8893 H   0  0  0  0  0  0  0  0  0  0  0  0
    2.2731   18.7599   -4.5109 H   0  0  0  0  0  0  0  0  0  0  0  0
    6.0551   17.8846   -2.3112 H   0  0  0  0  0  0  0  0  0  0  0  0
    4.3349   19.5074   -5.8006 H   0  0  0  0  0  0  0  0  0  0  0  0
    6.8716   16.8394   -6.4384 H   0  0  0  0  0  0  0  0  0  0  0  0
    5.2318   16.3253   -6.8743 H   0  0  0  0  0  0  0  0  0  0  0  0
    7.2054   14.6435   -5.5245 H   0  0  0  0  0  0  0  0  0  0  0  0
    6.8466   14.6073   -7.1299 H   0  0  0  0  0  0  0  0  0  0  0  0
    0.5639   11.4839   -1.8810 H   0  0  0  0  0  0  0  0  0  0  0  0
    1.4268   11.7551   -3.4067 H   0  0  0  0  0  0  0  0  0  0  0  0
    2.4749   11.0252   -0.8748 H   0  0  0  0  0  0  0  0  0  0  0  0
    2.2217   11.1522    3.1399 H   0  0  0  0  0  0  0  0  0  0  0  0
    2.4327   17.6142    4.2013 H   0  0  0  0  0  0  0  0  0  0  0  0
    1.3493   17.0479    5.2912 H   0  0  0  0  0  0  0  0  0  0  0  0
    6.2690   16.2527    1.0537 H   0  0  0  0  0  0  0  0  0  0  0  0
    5.6567   17.6706    0.5878 H   0  0  0  0  0  0  0  0  0  0  0  0
    5.5986   18.2055    4.9554 H   0  0  0  0  0  0  0  0  0  0  0  0
    8.1428   16.4465    1.9287 H   0  0  0  0  0  0  0  0  0  0  0  0
    6.9307   14.7998    6.2175 H   0  0  0  0  0  0  0  0  0  0  0  0
    5.6881   15.9867    5.8305 H   0  0  0  0  0  0  0  0  0  0  0  0
    5.4259   13.2366    5.2513 H   0  0  0  0  0  0  0  0  0  0  0  0
  1 48  1  6  0  0  0
  1 59  1  0  0  0  0
  1  3  1  0  0  0  0
  1  2  1  0  0  0  0
  4  6  1  1  0  0  0
  4  5  1  0  0  0  0
  4  3  1  0  0  0  0
  6  7  1  1  0  0  0
  6  8  1  0  0  0  0
  6 47  1  0  0  0  0
  8  9  1  0  0  0  0
  8 62  1  0  0  0  0
  8 63  1  0  0  0  0
  9 12  1  6  0  0  0
  9 11  1  0  0  0  0
  9 10  1  0  0  0  0
 11 64  1  0  0  0  0
 11 65  1  0  0  0  0
 12 13  1  0  0  0  0
 12 14  1  6  0  0  0
 12 46  1  0  0  0  0
 14  4  1  1  0  0  0
 14 16  1  0  0  0  0
 14 15  1  0  0  0  0
 16 17  1  0  0  0  0
 17 18  1  0  0  0  0
 17 19  1  6  0  0  0
 17 43  1  0  0  0  0
 19 22  1  6  0  0  0
 19 21  1  0  0  0  0
 19 20  1  0  0  0  0
 21 66  1  0  0  0  0
 22 23  1  0  0  0  0
 22 24  1  0  0  0  0
 22 41  1  1  0  0  0
 25 27  1  6  0  0  0
 25 38  1  0  0  0  0
 25 26  1  0  0  0  0
 25 24  1  0  0  0  0
 27 30  1  6  0  0  0
 27 29  1  0  0  0  0
 27 28  1  0  0  0  0
 29 67  1  0  0  0  0
 29 68  1  0  0  0  0
 30 32  1  0  0  0  0
 30 31  1  6  0  0  0
 32 69  1  0  0  0  0
 33 30  1  1  0  0  0
 33 34  1  0  0  0  0
 33 35  1  0  0  0  0
 35 70  1  0  0  0  0
 36 33  1  1  0  0  0
 36 37  1  0  0  0  0
 36 38  1  0  0  0  0
 36 39  1  0  0  0  0
 39 40  1  0  0  0  0
 39 71  1  0  0  0  0
 39 72  1  0  0  0  0
 40 73  1  0  0  0  0
 40 74  1  0  0  0  0
 41 43  1  0  0  0  0
 41 44  1  0  0  0  0
 41 42  1  6  0  0  0
 44 45  1  0  0  0  0
 44 75  1  0  0  0  0
 44 76  1  0  0  0  0
 45 77  1  0  0  0  0
 46 78  1  0  0  0  0
 47 79  1  0  0  0  0
 47 80  1  0  0  0  0
 48 51  1  1  0  0  0
 48 50  1  0  0  0  0
 48 49  1  0  0  0  0
 50 81  1  0  0  0  0
 50 82  1  0  0  0  0
 51 54  1  1  0  0  0
 51 53  1  0  0  0  0
 51 52  1  0  0  0  0
 53 83  1  0  0  0  0
 54 55  1  0  0  0  0
 54 56  1  0  0  0  0
 54 57  1  1  0  0  0
 56 84  1  0  0  0  0
 57 59  1  0  0  0  0
 57 60  1  0  0  0  0
 57 58  1  6  0  0  0
 60 61  1  0  0  0  0
 60 85  1  0  0  0  0
 60 86  1  0  0  0  0
 61 87  1  0  0  0  0
M  END
$$$$
