
 OpenBabel03221816523D

 27 26  0  0  1  0  0  0  0  0999 V2000
    3.0219   -1.3282   -0.1330 N   0  0  0  0  0  0  0  0  0  0  0  0
    2.4349    0.0138    0.0446 C   0  0  2  0  0  0  0  0  0  0  0  0
    2.7195    0.4099    1.0262 H   0  0  0  0  0  0  0  0  0  0  0  0
    0.8971   -0.0531   -0.0037 C   0  0  0  0  0  0  0  0  0  0  0  0
    0.1987    0.5532   -0.8015 O   0  0  0  0  0  0  0  0  0  0  0  0
    0.3722   -0.8716    0.9393 O   0  0  0  0  0  0  0  0  0  0  0  0
    2.9582    0.9652   -1.0465 C   0  0  0  0  0  0  0  0  0  0  0  0
    4.4826    1.1025   -1.0576 C   0  0  0  0  0  0  0  0  0  0  0  0
    4.9440    2.0773   -2.1381 C   0  0  0  0  0  0  0  0  0  0  0  0
    6.4121    2.1746   -2.1547 N   0  0  0  0  0  0  0  0  0  0  0  0
    7.1126    2.9487   -2.9967 C   0  0  0  0  0  0  0  0  0  0  0  0
    6.5174    3.7144   -3.9138 N   0  3  0  0  0  0  0  0  0  0  0  0
    7.0476    4.2977   -4.5472 H   0  0  0  0  0  0  0  0  0  0  0  0
    5.5105    3.7338   -4.0086 H   0  0  0  0  0  0  0  0  0  0  0  0
    8.4470    2.9601   -2.9213 N   0  0  0  0  0  0  0  0  0  0  0  0
    2.6720   -1.7336   -1.0062 H   0  0  0  0  0  0  0  0  0  0  0  0
    2.7362   -1.9748    0.5987 H   0  0  0  0  0  0  0  0  0  0  0  0
    1.0334   -1.2524    1.5457 H   0  0  0  0  0  0  0  0  0  0  0  0
    2.5129    1.9579   -0.8955 H   0  0  0  0  0  0  0  0  0  0  0  0
    2.6177    0.6254   -2.0340 H   0  0  0  0  0  0  0  0  0  0  0  0
    4.9551    0.1300   -1.2387 H   0  0  0  0  0  0  0  0  0  0  0  0
    4.8355    1.4476   -0.0782 H   0  0  0  0  0  0  0  0  0  0  0  0
    4.5362    3.0738   -1.9392 H   0  0  0  0  0  0  0  0  0  0  0  0
    4.6138    1.7260   -3.1216 H   0  0  0  0  0  0  0  0  0  0  0  0
    6.9354    1.6140   -1.4933 H   0  0  0  0  0  0  0  0  0  0  0  0
    8.9486    2.3985   -2.2452 H   0  0  0  0  0  0  0  0  0  0  0  0
    9.0049    3.5342   -3.5407 H   0  0  0  0  0  0  0  0  0  0  0  0
  1 16  1  0  0  0  0
  1 17  1  0  0  0  0
  2  4  1  0  0  0  0
  2  7  1  0  0  0  0
  2  3  1  1  0  0  0
  2  1  1  0  0  0  0
  4  5  2  0  0  0  0
  4  6  1  0  0  0  0
  6 18  1  0  0  0  0
  7  8  1  0  0  0  0
  7 19  1  0  0  0  0
  7 20  1  0  0  0  0
  8  9  1  0  0  0  0
  8 21  1  0  0  0  0
  8 22  1  0  0  0  0
  9 10  1  0  0  0  0
  9 23  1  0  0  0  0
  9 24  1  0  0  0  0
 10 11  1  0  0  0  0
 10 25  1  0  0  0  0
 11 12  2  0  0  0  0
 11 15  1  0  0  0  0
 12 13  1  0  0  0  0
 12 14  1  0  0  0  0
 15 26  1  0  0  0  0
 15 27  1  0  0  0  0
M  CHG  1  12   1
M  END
$$$$
