2XNZ_3AW_A_1088
 OpenBabel10091713583D
Coordinates from PDB:2XNZ:A:1088 Model:1 without hydrogens
 16 16  0  0  0  0  0  0  0  0999 V2000
   11.9750    1.7570   11.5000 N   0  0  0  0  0  0  0  0  0  0  0  0
   11.9410    2.3020   12.7330 C   0  0  0  0  0  0  0  0  0  0  0  0
   12.4240    3.7380   12.9540 C   0  0  0  0  0  0  0  0  0  0  0  0
   11.5010    1.5820   13.7780 N   0  0  0  0  0  0  0  0  0  0  0  0
   11.5490    0.4910   11.3310 C   0  0  0  0  0  0  0  0  0  0  0  0
   11.0740    0.3270   13.6040 C   0  0  0  0  0  0  0  0  0  0  0  0
   11.0970   -0.2110   12.3820 N   0  0  0  0  0  0  0  0  0  0  0  0
   10.6190   -0.3980   14.6220 N   0  0  0  0  0  0  0  0  0  0  0  0
   11.5590   -0.0830   10.1220 N   0  0  0  0  0  0  0  0  0  0  0  0
   12.3218    3.9935   13.9880 H   0  0  0  0  0  0  0  0  0  0  0  0
   11.8359    4.4073   12.3614 H   0  0  0  0  0  0  0  0  0  0  0  0
   13.4518    3.8168   12.6670 H   0  0  0  0  0  0  0  0  0  0  0  0
   10.5963   -0.0142   15.5283 H   0  0  0  0  0  0  0  0  0  0  0  0
   10.3049   -1.3185   14.4692 H   0  0  0  0  0  0  0  0  0  0  0  0
   11.8876    0.4190    9.3414 H   0  0  0  0  0  0  0  0  0  0  0  0
   11.2378   -1.0073   10.0132 H   0  0  0  0  0  0  0  0  0  0  0  0
  1  5  1  0  0  0  0
  2  3  1  0  0  0  0
  2  1  2  0  0  0  0
  3 10  1  0  0  0  0
  3 11  1  0  0  0  0
  3 12  1  0  0  0  0
  4  2  1  0  0  0  0
  4  6  2  0  0  0  0
  5  7  2  0  0  0  0
  5  9  1  0  0  0  0
  7  6  1  0  0  0  0
  8  6  1  0  0  0  0
  8 13  1  0  0  0  0
  8 14  1  0  0  0  0
  9 15  1  0  0  0  0
  9 16  1  0  0  0  0
M  END
$$$$
