3GCA_PQ0_A_34
 OpenBabel10091713573D
Coordinates from PDB:3GCA:A:34 Model:1 without hydrogens
 18 19  0  0  0  0  0  0  0  0999 V2000
   34.1500   33.9600   23.0350 N   0  0  0  0  0  0  0  0  0  0  0  0
   33.3460   32.6700   23.4820 C   0  0  0  0  0  0  0  0  0  0  0  0
   33.8220   32.1560   24.5370 N   0  0  0  0  0  0  0  0  0  0  0  0
   34.8820   32.4990   25.2940 C   0  0  0  0  0  0  0  0  0  0  0  0
   35.6270   33.5770   24.9800 C   0  0  0  0  0  0  0  0  0  0  0  0
   35.2020   34.4100   23.7070 C   0  0  0  0  0  0  0  0  0  0  0  0
   35.8690   35.3570   23.4390 O   0  0  0  0  0  0  0  0  0  0  0  0
   36.7770   33.8160   25.9760 C   0  0  0  0  0  0  0  0  0  0  0  0
   37.7820   34.9010   25.9110 C   0  0  0  0  0  0  0  0  0  0  0  0
   38.5260   35.7820   25.8260 N   0  0  0  0  0  0  0  0  0  0  0  0
   36.6760   32.8260   26.8700 C   0  0  0  0  0  0  0  0  0  0  0  0
   35.6370   31.9590   26.6630 N   0  0  0  0  0  0  0  0  0  0  0  0
   32.2540   32.2680   22.7380 N   0  0  0  0  0  0  0  0  0  0  0  0
   33.8585   34.4453   22.2295 H   0  0  0  0  0  0  0  0  0  0  0  0
   37.3337   32.7233   27.6586 H   0  0  0  0  0  0  0  0  0  0  0  0
   35.3914   31.1797   27.2122 H   0  0  0  0  0  0  0  0  0  0  0  0
   31.9968   32.7694   21.9308 H   0  0  0  0  0  0  0  0  0  0  0  0
   31.7328   31.4800   23.0149 H   0  0  0  0  0  0  0  0  0  0  0  0
  1  2  1  0  0  0  0
  1  6  1  0  0  0  0
  1 14  1  0  0  0  0
  2  3  2  0  0  0  0
  2 13  1  0  0  0  0
  3  4  1  0  0  0  0
  4  5  2  0  0  0  0
  4 12  1  0  0  0  0
  5  6  1  0  0  0  0
  5  8  1  0  0  0  0
  6  7  2  0  0  0  0
  8  9  1  0  0  0  0
  8 11  2  0  0  0  0
  9 10  3  0  0  0  0
 11 12  1  0  0  0  0
 11 15  1  0  0  0  0
 12 16  1  0  0  0  0
 13 17  1  0  0  0  0
 13 18  1  0  0  0  0
M  END
$$$$
