2O3W_PAR_B_101
 OpenBabel03221817263D

 87 90  0  0  1  0  0  0  0  0999 V2000
    4.9980   16.2359    3.0742 C   0  0  2  0  0  0  0  0  0  0  0  0
    4.6792   16.5648    4.0608 H   0  0  0  0  0  0  0  0  0  0  0  0
    3.8208   16.1200    2.2738 O   0  0  0  0  0  0  0  0  0  0  0  0
    2.8211   15.1877    2.7246 C   0  0  2  0  0  0  0  0  0  0  0  0
    1.9725   15.4292    2.0735 H   0  0  0  0  0  0  0  0  0  0  0  0
    2.3653   15.4518    4.2015 C   0  0  2  0  0  0  0  0  0  0  0  0
    3.2062   15.2070    4.8610 H   0  0  0  0  0  0  0  0  0  0  0  0
    1.1921   14.5578    4.6255 C   0  0  0  0  0  0  0  0  0  0  0  0
    1.5251   13.0945    4.3455 C   0  0  1  0  0  0  0  0  0  0  0  0
    2.4303   12.8291    4.9065 H   0  0  0  0  0  0  0  0  0  0  0  0
    0.4866   12.1810    4.8283 N   0  0  0  0  0  0  0  0  0  0  0  0
    1.8120   12.9093    2.8307 C   0  0  1  0  0  0  0  0  0  0  0  0
    0.9936   13.3372    2.2322 H   0  0  0  0  0  0  0  0  0  0  0  0
    3.1369   13.6517    2.4802 C   0  0  1  0  0  0  0  0  0  0  0  0
    3.9318   13.3113    3.1546 H   0  0  0  0  0  0  0  0  0  0  0  0
    3.6064   13.4555    1.1347 O   0  0  0  0  0  0  0  0  0  0  0  0
    3.9113   12.1184    0.7160 C   0  0  1  0  0  0  0  0  0  0  0  0
    2.9981   11.5273    0.6950 H   0  0  0  0  0  0  0  0  0  0  0  0
    4.4654   12.1768   -0.7120 C   0  0  2  0  0  0  0  0  0  0  0  0
    5.3606   12.8123   -0.7348 H   0  0  0  0  0  0  0  0  0  0  0  0
    3.5412   12.7080   -1.6551 O   0  0  0  0  0  0  0  0  0  0  0  0
    4.8631   10.7188   -0.9266 C   0  0  2  0  0  0  0  0  0  0  0  0
    5.5551   10.5651   -1.7595 H   0  0  0  0  0  0  0  0  0  0  0  0
    3.7447    9.8222   -1.0973 O   0  0  0  0  0  0  0  0  0  0  0  0
    2.9775    9.9411   -2.3061 C   0  0  2  0  0  0  0  0  0  0  0  0
    2.5608   10.9433   -2.3650 H   0  0  0  0  0  0  0  0  0  0  0  0
    1.7785    8.9489   -2.2199 C   0  0  2  0  0  0  0  0  0  0  0  0
    1.2370    9.1278   -1.2866 H   0  0  0  0  0  0  0  0  0  0  0  0
    2.2585    7.5410   -2.2026 N   0  0  0  0  0  0  0  0  0  0  0  0
    0.8375    9.2188   -3.4178 C   0  0  1  0  0  0  0  0  0  0  0  0
    0.0524    8.4527   -3.4120 H   0  0  0  0  0  0  0  0  0  0  0  0
    0.1459   10.4646   -3.2981 O   0  0  0  0  0  0  0  0  0  0  0  0
    1.5939    9.1379   -4.7584 C   0  0  2  0  0  0  0  0  0  0  0  0
    0.9897    9.5584   -5.5737 H   0  0  0  0  0  0  0  0  0  0  0  0
    1.8411    7.7627   -5.0964 O   0  0  0  0  0  0  0  0  0  0  0  0
    2.9331    9.9385   -4.7034 C   0  0  1  0  0  0  0  0  0  0  0  0
    2.7011   11.0127   -4.7030 H   0  0  0  0  0  0  0  0  0  0  0  0
    3.7024    9.6568   -3.5110 O   0  0  0  0  0  0  0  0  0  0  0  0
    3.7721    9.6067   -5.9618 C   0  0  0  0  0  0  0  0  0  0  0  0
    4.9701   10.4290   -6.1083 N   0  0  0  0  0  0  0  0  0  0  0  0
    5.5050   10.4396    0.4692 C   0  0  2  0  0  0  0  0  0  0  0  0
    5.2600    9.4253    0.8131 H   0  0  0  0  0  0  0  0  0  0  0  0
    4.9283   11.3955    1.4334 O   0  0  0  0  0  0  0  0  0  0  0  0
    7.0307   10.6206    0.4776 C   0  0  0  0  0  0  0  0  0  0  0  0
    7.6570    9.7670   -0.4714 O   0  0  0  0  0  0  0  0  0  0  0  0
    1.8229   11.5222    2.5132 O   0  0  0  0  0  0  0  0  0  0  0  0
    2.0180   16.8541    4.4899 N   0  0  0  0  0  0  0  0  0  0  0  0
    5.9309   17.3608    2.5233 C   0  0  2  0  0  0  0  0  0  0  0  0
    5.3914   18.3127    2.6056 H   0  0  0  0  0  0  0  0  0  0  0  0
    6.2620   17.1966    1.0881 N   0  0  0  0  0  0  0  0  0  0  0  0
    7.2074   17.4179    3.3969 C   0  0  1  0  0  0  0  0  0  0  0  0
    7.9423   18.0467    2.8800 H   0  0  0  0  0  0  0  0  0  0  0  0
    6.9650   18.1072    4.6270 O   0  0  0  0  0  0  0  0  0  0  0  0
    7.8337   16.0259    3.6215 C   0  0  2  0  0  0  0  0  0  0  0  0
    8.6110   16.0730    4.3909 H   0  0  0  0  0  0  0  0  0  0  0  0
    8.4732   15.5889    2.4056 O   0  0  0  0  0  0  0  0  0  0  0  0
    6.8070   14.9406    3.9949 C   0  0  2  0  0  0  0  0  0  0  0  0
    7.2591   13.9651    3.7791 H   0  0  0  0  0  0  0  0  0  0  0  0
    5.6556   14.9840    3.1500 O   0  0  0  0  0  0  0  0  0  0  0  0
    6.4004   14.8965    5.4778 C   0  0  0  0  0  0  0  0  0  0  0  0
    5.8794   16.1396    5.9406 O   0  0  0  0  0  0  0  0  0  0  0  0
    0.2781   14.8446    4.0870 H   0  0  0  0  0  0  0  0  0  0  0  0
    0.9857   14.7002    5.6954 H   0  0  0  0  0  0  0  0  0  0  0  0
   -0.1813   11.9696    4.0870 H   0  0  0  0  0  0  0  0  0  0  0  0
   -0.0378   12.5963    5.5980 H   0  0  0  0  0  0  0  0  0  0  0  0
    2.7771   13.0060   -1.1281 H   0  0  0  0  0  0  0  0  0  0  0  0
    3.0667    7.5025   -2.8388 H   0  0  0  0  0  0  0  0  0  0  0  0
    1.5685    6.9200   -2.6139 H   0  0  0  0  0  0  0  0  0  0  0  0
    0.7550   11.2049   -3.4199 H   0  0  0  0  0  0  0  0  0  0  0  0
    0.9969    7.2805   -5.0428 H   0  0  0  0  0  0  0  0  0  0  0  0
    3.1557    9.7379   -6.8584 H   0  0  0  0  0  0  0  0  0  0  0  0
    4.0955    8.5571   -5.9360 H   0  0  0  0  0  0  0  0  0  0  0  0
    4.7249   11.4197   -6.1303 H   0  0  0  0  0  0  0  0  0  0  0  0
    5.4323   10.2136   -6.9911 H   0  0  0  0  0  0  0  0  0  0  0  0
    7.3003   11.6589    0.2581 H   0  0  0  0  0  0  0  0  0  0  0  0
    7.4378   10.3911    1.4695 H   0  0  0  0  0  0  0  0  0  0  0  0
    8.4684   10.2087   -0.7767 H   0  0  0  0  0  0  0  0  0  0  0  0
    2.0053   11.0288    3.3355 H   0  0  0  0  0  0  0  0  0  0  0  0
    2.5850   17.4708    3.9025 H   0  0  0  0  0  0  0  0  0  0  0  0
    1.0553   17.0512    4.2138 H   0  0  0  0  0  0  0  0  0  0  0  0
    6.6403   16.2538    0.9584 H   0  0  0  0  0  0  0  0  0  0  0  0
    6.9875   17.8537    0.8144 H   0  0  0  0  0  0  0  0  0  0  0  0
    6.5307   17.4928    5.2587 H   0  0  0  0  0  0  0  0  0  0  0  0
    9.0958   16.2952    2.1296 H   0  0  0  0  0  0  0  0  0  0  0  0
    5.6363   14.1253    5.6362 H   0  0  0  0  0  0  0  0  0  0  0  0
    7.2669   14.6541    6.0994 H   0  0  0  0  0  0  0  0  0  0  0  0
    4.9641   15.9756    6.2466 H   0  0  0  0  0  0  0  0  0  0  0  0
  1 48  1  6  0  0  0
  1 59  1  0  0  0  0
  1  3  1  0  0  0  0
  1  2  1  0  0  0  0
  4  6  1  1  0  0  0
  4  5  1  0  0  0  0
  4  3  1  0  0  0  0
  6  7  1  1  0  0  0
  6  8  1  0  0  0  0
  6 47  1  0  0  0  0
  8  9  1  0  0  0  0
  8 62  1  0  0  0  0
  8 63  1  0  0  0  0
  9 12  1  6  0  0  0
  9 11  1  0  0  0  0
  9 10  1  0  0  0  0
 11 64  1  0  0  0  0
 11 65  1  0  0  0  0
 12 13  1  0  0  0  0
 12 14  1  6  0  0  0
 12 46  1  0  0  0  0
 14  4  1  1  0  0  0
 14 16  1  0  0  0  0
 14 15  1  0  0  0  0
 16 17  1  0  0  0  0
 17 18  1  0  0  0  0
 17 19  1  6  0  0  0
 17 43  1  0  0  0  0
 19 22  1  6  0  0  0
 19 21  1  0  0  0  0
 19 20  1  0  0  0  0
 21 66  1  0  0  0  0
 22 23  1  0  0  0  0
 22 24  1  0  0  0  0
 22 41  1  1  0  0  0
 25 27  1  1  0  0  0
 25 38  1  0  0  0  0
 25 26  1  0  0  0  0
 25 24  1  0  0  0  0
 27 30  1  6  0  0  0
 27 29  1  0  0  0  0
 27 28  1  0  0  0  0
 29 67  1  0  0  0  0
 29 68  1  0  0  0  0
 30 32  1  0  0  0  0
 30 31  1  6  0  0  0
 32 69  1  0  0  0  0
 33 30  1  1  0  0  0
 33 34  1  0  0  0  0
 33 35  1  0  0  0  0
 35 70  1  0  0  0  0
 36 33  1  1  0  0  0
 36 37  1  0  0  0  0
 36 38  1  0  0  0  0
 36 39  1  0  0  0  0
 39 40  1  0  0  0  0
 39 71  1  0  0  0  0
 39 72  1  0  0  0  0
 40 73  1  0  0  0  0
 40 74  1  0  0  0  0
 41 43  1  0  0  0  0
 41 44  1  0  0  0  0
 41 42  1  1  0  0  0
 44 45  1  0  0  0  0
 44 75  1  0  0  0  0
 44 76  1  0  0  0  0
 45 77  1  0  0  0  0
 46 78  1  0  0  0  0
 47 79  1  0  0  0  0
 47 80  1  0  0  0  0
 48 51  1  1  0  0  0
 48 50  1  0  0  0  0
 48 49  1  0  0  0  0
 50 81  1  0  0  0  0
 50 82  1  0  0  0  0
 51 54  1  1  0  0  0
 51 53  1  0  0  0  0
 51 52  1  0  0  0  0
 53 83  1  0  0  0  0
 54 55  1  0  0  0  0
 54 56  1  0  0  0  0
 54 57  1  1  0  0  0
 56 84  1  0  0  0  0
 57 59  1  0  0  0  0
 57 60  1  0  0  0  0
 57 58  1  6  0  0  0
 60 61  1  0  0  0  0
 60 85  1  0  0  0  0
 60 86  1  0  0  0  0
 61 87  1  0  0  0  0
M  END
$$$$
