5BWS_V71_B_100
 OpenBabel03221817323D

 47 48  0  0  1  0  0  0  0  0999 V2000
    0.4918    1.1724   -0.0944 C   0  0  2  0  0  0  0  0  0  0  0  0
    1.0447    0.2322   -0.0369 H   0  0  0  0  0  0  0  0  0  0  0  0
    0.1351    1.4079   -1.6022 C   0  0  1  0  0  0  0  0  0  0  0  0
    1.0708    1.3534   -2.1723 H   0  0  0  0  0  0  0  0  0  0  0  0
   -0.8208    0.2867   -2.0738 C   0  0  2  0  0  0  0  0  0  0  0  0
   -1.2089    0.5240   -3.0717 H   0  0  0  0  0  0  0  0  0  0  0  0
   -2.0106    0.1545   -1.1164 C   0  0  2  0  0  0  0  0  0  0  0  0
   -2.6251    1.0569   -1.2146 H   0  0  0  0  0  0  0  0  0  0  0  0
   -1.5898    0.0298    0.3499 C   0  0  1  0  0  0  0  0  0  0  0  0
   -2.4888    0.1954    0.9570 H   0  0  0  0  0  0  0  0  0  0  0  0
   -1.0718   -1.3788    0.7235 C   0  0  0  0  0  0  0  0  0  0  0  0
   -0.6928   -1.4892    2.1377 N   0  0  0  0  0  0  0  0  0  0  0  0
   -0.6784    1.0836    0.7182 O   0  0  0  0  0  0  0  0  0  0  0  0
   -2.7976   -0.8939   -1.4711 F   0  0  0  0  0  0  0  0  0  0  0  0
   -0.1491   -0.9689   -2.2365 O   0  0  0  0  0  0  0  0  0  0  0  0
   -0.4241    2.7523   -1.8610 N   0  0  0  0  0  0  0  0  0  0  0  0
    1.3666    2.2241    0.3600 O   0  0  0  0  0  0  0  0  0  0  0  0
    1.7440    2.1329    1.7506 C   0  0  1  0  0  0  0  0  0  0  0  0
    0.8281    2.1274    2.3555 H   0  0  0  0  0  0  0  0  0  0  0  0
    2.5817    0.8652    2.0457 C   0  0  1  0  0  0  0  0  0  0  0  0
    2.0295   -0.0255    1.7403 H   0  0  0  0  0  0  0  0  0  0  0  0
    3.9060    0.9031    1.2498 C   0  0  2  0  0  0  0  0  0  0  0  0
    4.4771   -0.0071    1.4675 H   0  0  0  0  0  0  0  0  0  0  0  0
    4.7615    2.1334    1.6463 C   0  0  1  0  0  0  0  0  0  0  0  0
    5.6102    2.2084    0.9552 H   0  0  0  0  0  0  0  0  0  0  0  0
    3.9525    3.4391    1.5070 C   0  0  0  0  0  0  0  0  0  0  0  0
    2.5401    3.4206    2.1302 C   0  0  2  0  0  0  0  0  0  0  0  0
    1.9948    4.2843    1.7272 H   0  0  0  0  0  0  0  0  0  0  0  0
    2.6156    3.6095    3.5927 N   0  0  0  0  0  0  0  0  0  0  0  0
    5.3167    1.9928    3.0061 N   0  0  0  0  0  0  0  0  0  0  0  0
    3.6647    0.8925   -0.1682 O   0  0  0  0  0  0  0  0  0  0  0  0
    2.8396    0.7026    3.4484 O   0  0  0  0  0  0  0  0  0  0  0  0
   -1.8474   -2.1249    0.5145 H   0  0  0  0  0  0  0  0  0  0  0  0
   -0.1933   -1.6582    0.1391 H   0  0  0  0  0  0  0  0  0  0  0  0
   -1.4923   -1.2475    2.7239 H   0  0  0  0  0  0  0  0  0  0  0  0
    0.0158   -0.7911    2.3554 H   0  0  0  0  0  0  0  0  0  0  0  0
    0.7389   -0.9578   -1.8416 H   0  0  0  0  0  0  0  0  0  0  0  0
   -1.1868    2.9583   -1.2165 H   0  0  0  0  0  0  0  0  0  0  0  0
   -0.7817    2.8247   -2.8122 H   0  0  0  0  0  0  0  0  0  0  0  0
    3.8452    3.6616    0.4372 H   0  0  0  0  0  0  0  0  0  0  0  0
    4.5329    4.2795    1.9132 H   0  0  0  0  0  0  0  0  0  0  0  0
    2.8957    4.5783    3.7698 H   0  0  0  0  0  0  0  0  0  0  0  0
    3.4215    3.0802    3.9429 H   0  0  0  0  0  0  0  0  0  0  0  0
    6.0724    1.3031    2.9668 H   0  0  0  0  0  0  0  0  0  0  0  0
    4.6158    1.5107    3.5869 H   0  0  0  0  0  0  0  0  0  0  0  0
    3.1604    1.7044   -0.3981 H   0  0  0  0  0  0  0  0  0  0  0  0
    2.1439    1.1885    3.9355 H   0  0  0  0  0  0  0  0  0  0  0  0
  1  3  1  6  0  0  0
  1 13  1  0  0  0  0
  1 17  1  0  0  0  0
  1  2  1  0  0  0  0
  3  5  1  6  0  0  0
  3 16  1  0  0  0  0
  3  4  1  0  0  0  0
  5  7  1  1  0  0  0
  5 15  1  0  0  0  0
  5  6  1  0  0  0  0
  7 14  1  0  0  0  0
  7  8  1  6  0  0  0
  9  7  1  6  0  0  0
  9 13  1  0  0  0  0
  9 11  1  0  0  0  0
  9 10  1  0  0  0  0
 11 12  1  0  0  0  0
 11 33  1  0  0  0  0
 11 34  1  0  0  0  0
 12 35  1  0  0  0  0
 12 36  1  0  0  0  0
 15 37  1  0  0  0  0
 16 38  1  0  0  0  0
 16 39  1  0  0  0  0
 17 18  1  0  0  0  0
 18 19  1  0  0  0  0
 18 20  1  1  0  0  0
 20 22  1  6  0  0  0
 20 32  1  0  0  0  0
 20 21  1  0  0  0  0
 22 24  1  1  0  0  0
 22 31  1  0  0  0  0
 22 23  1  0  0  0  0
 24 25  1  6  0  0  0
 24 26  1  0  0  0  0
 24 30  1  0  0  0  0
 26 27  1  0  0  0  0
 26 40  1  0  0  0  0
 26 41  1  0  0  0  0
 27 28  1  0  0  0  0
 27 18  1  6  0  0  0
 27 29  1  0  0  0  0
 29 42  1  0  0  0  0
 29 43  1  0  0  0  0
 30 44  1  0  0  0  0
 30 45  1  0  0  0  0
 31 46  1  0  0  0  0
 32 47  1  0  0  0  0
M  END
$$$$
