2O3Y_SPM_A_51
 OpenBabel03221817263D

 40 39  0  0  0  0  0  0  0  0999 V2000
    0.8608   -0.0710   -0.0167 N   0  0  0  0  0  0  0  0  0  0  0  0
    2.3191   -0.0661   -0.0212 C   0  0  0  0  0  0  0  0  0  0  0  0
    2.8622    0.2379    1.3744 C   0  0  0  0  0  0  0  0  0  0  0  0
    4.3918    0.2354    1.3676 C   0  0  0  0  0  0  0  0  0  0  0  0
    4.9019    0.5410    2.7052 N   0  0  0  0  0  0  0  0  0  0  0  0
    6.3646    0.5344    2.7192 C   0  0  0  0  0  0  0  0  0  0  0  0
    6.8678    0.8432    4.1293 C   0  0  0  0  0  0  0  0  0  0  0  0
    8.3972    0.8611    4.1737 C   0  0  0  0  0  0  0  0  0  0  0  0
    8.9011    1.1703    5.5831 C   0  0  0  0  0  0  0  0  0  0  0  0
   10.3636    1.1659    5.5962 N   0  0  0  0  0  0  0  0  0  0  0  0
   10.8739    1.4700    6.9339 C   0  0  0  0  0  0  0  0  0  0  0  0
   12.4040    1.4703    6.9264 C   0  0  0  0  0  0  0  0  0  0  0  0
   12.9466    1.7724    8.3227 C   0  0  0  0  0  0  0  0  0  0  0  0
   14.4050    1.7825    8.3169 N   0  0  0  0  0  0  0  0  0  0  0  0
    0.5197   -0.2099   -0.9670 H   0  0  0  0  0  0  0  0  0  0  0  0
    0.5165    0.8422    0.2788 H   0  0  0  0  0  0  0  0  0  0  0  0
    2.6764    0.6826   -0.7370 H   0  0  0  0  0  0  0  0  0  0  0  0
    2.6761   -1.0453   -0.3577 H   0  0  0  0  0  0  0  0  0  0  0  0
    2.4914   -0.5103    2.0877 H   0  0  0  0  0  0  0  0  0  0  0  0
    2.4948    1.2162    1.7118 H   0  0  0  0  0  0  0  0  0  0  0  0
    4.7511    0.9860    0.6537 H   0  0  0  0  0  0  0  0  0  0  0  0
    4.7542   -0.7464    1.0397 H   0  0  0  0  0  0  0  0  0  0  0  0
    4.5488   -0.1480    3.3696 H   0  0  0  0  0  0  0  0  0  0  0  0
    6.7476    1.2905    2.0238 H   0  0  0  0  0  0  0  0  0  0  0  0
    6.7441   -0.4443    2.4010 H   0  0  0  0  0  0  0  0  0  0  0  0
    6.4903    0.0909    4.8333 H   0  0  0  0  0  0  0  0  0  0  0  0
    6.4811    1.8164    4.4573 H   0  0  0  0  0  0  0  0  0  0  0  0
    8.7745    1.6129    3.4690 H   0  0  0  0  0  0  0  0  0  0  0  0
    8.7839   -0.1126    3.8457 H   0  0  0  0  0  0  0  0  0  0  0  0
    8.5194    0.4134    6.2788 H   0  0  0  0  0  0  0  0  0  0  0  0
    8.5204    2.1480    5.9015 H   0  0  0  0  0  0  0  0  0  0  0  0
   10.7152    1.8565    4.9325 H   0  0  0  0  0  0  0  0  0  0  0  0
   10.5162    0.7174    7.6471 H   0  0  0  0  0  0  0  0  0  0  0  0
   10.5100    2.4500    7.2637 H   0  0  0  0  0  0  0  0  0  0  0  0
   12.7724    2.2206    6.2148 H   0  0  0  0  0  0  0  0  0  0  0  0
   12.7728    0.4935    6.5872 H   0  0  0  0  0  0  0  0  0  0  0  0
   12.5925    1.0207    9.0365 H   0  0  0  0  0  0  0  0  0  0  0  0
   12.5866    2.7496    8.6621 H   0  0  0  0  0  0  0  0  0  0  0  0
   14.7523    0.8714    8.0181 H   0  0  0  0  0  0  0  0  0  0  0  0
   14.7464    1.9195    9.2674 H   0  0  0  0  0  0  0  0  0  0  0  0
  1  2  1  0  0  0  0
  1 15  1  0  0  0  0
  1 16  1  0  0  0  0
  2  3  1  0  0  0  0
  2 17  1  0  0  0  0
  2 18  1  0  0  0  0
  3  4  1  0  0  0  0
  3 19  1  0  0  0  0
  3 20  1  0  0  0  0
  4  5  1  0  0  0  0
  4 21  1  0  0  0  0
  4 22  1  0  0  0  0
  5  6  1  0  0  0  0
  5 23  1  0  0  0  0
  6  7  1  0  0  0  0
  6 24  1  0  0  0  0
  6 25  1  0  0  0  0
  7  8  1  0  0  0  0
  7 26  1  0  0  0  0
  7 27  1  0  0  0  0
  8  9  1  0  0  0  0
  8 28  1  0  0  0  0
  8 29  1  0  0  0  0
  9 10  1  0  0  0  0
  9 30  1  0  0  0  0
  9 31  1  0  0  0  0
 10 11  1  0  0  0  0
 10 32  1  0  0  0  0
 11 12  1  0  0  0  0
 11 33  1  0  0  0  0
 11 34  1  0  0  0  0
 12 13  1  0  0  0  0
 12 35  1  0  0  0  0
 12 36  1  0  0  0  0
 13 14  1  0  0  0  0
 13 37  1  0  0  0  0
 13 38  1  0  0  0  0
 14 39  1  0  0  0  0
 14 40  1  0  0  0  0
M  END
$$$$
