ligand.pdb
 OpenBabel03221816523D

 42 42  0  0  1  0  0  0  0  0999 V2000
   -2.8382   -1.0330   -1.0442 C   0  0  0  0  0  0  0  0  0  0  0  0
   -3.0232    0.0425   -1.6955 O   0  0  0  0  0  0  0  0  0  0  0  0
   -3.4209   -1.1886    0.1437 N   0  0  0  0  0  0  0  0  0  0  0  0
   -3.2452   -2.3004    0.8448 C   0  0  0  0  0  0  0  0  0  0  0  0
      -nan      -nan      -nan O   0  0  0  0  0  0  0  0  0  0  0  0
   -2.4319   -3.3298    0.3260 N   0  0  0  0  0  0  0  0  0  0  0  0
   -1.8516   -3.1595   -0.8846 C   0  0  0  0  0  0  0  0  0  0  0  0
   -0.9798   -4.2537   -1.4789 C   0  0  0  0  0  0  0  0  0  0  0  0
   -2.0568   -1.9970   -1.5655 C   0  0  1  0  0  0  0  0  0  0  0  0
   -1.0933   -1.5594   -1.7240 H   0  0  0  0  0  0  0  0  0  0  0  0
   -2.8364   -2.4479   -2.7899 C   0  0  0  0  0  0  0  0  0  0  0  0
   -4.1357   -3.1034   -2.3513 C   0  0  0  0  0  0  0  0  0  0  0  0
   -4.9137   -3.5558   -3.5762 C   0  0  0  0  0  0  0  0  0  0  0  0
   -6.0765   -3.0930   -3.7972 O   0  0  0  0  0  0  0  0  0  0  0  0
   -4.3211   -4.5287   -4.5053 N   0  0  0  0  0  0  0  0  0  0  0  0
   -5.0564   -4.9813   -5.6951 C   0  0  2  0  0  0  0  0  0  0  0  0
   -6.1074   -4.9559   -5.4959 H   0  0  0  0  0  0  0  0  0  0  0  0
   -4.6398   -6.4024   -6.0379 C   0  0  0  0  0  0  0  0  0  0  0  0
   -3.2450   -6.4360   -6.3022 O   0  0  0  0  0  0  0  0  0  0  0  0
   -4.7402   -4.0644   -6.8654 C   0  0  0  0  0  0  0  0  0  0  0  0
   -5.6455   -4.6217   -8.3303 S   0  0  0  0  0  0  0  0  0  0  0  0
   -5.2689   -3.5298   -9.7238 C   0  0  0  0  0  0  0  0  0  0  0  0
   -3.4911   -3.5727  -10.0607 S   0  0  0  0  0  0  0  0  0  0  0  0
   -3.1145   -2.4808  -11.4543 C   0  0  0  0  0  0  0  0  0  0  0  0
   -0.9379   -5.0825   -0.8035 H   0  0  0  0  0  0  0  0  0  0  0  0
    0.0077   -3.8747   -1.6402 H   0  0  0  0  0  0  0  0  0  0  0  0
   -1.3956   -4.5741   -2.4112 H   0  0  0  0  0  0  0  0  0  0  0  0
   -3.0547   -1.6005   -3.4056 H   0  0  0  0  0  0  0  0  0  0  0  0
   -2.2520   -3.1516   -3.3451 H   0  0  0  0  0  0  0  0  0  0  0  0
   -4.7209   -2.3997   -1.7970 H   0  0  0  0  0  0  0  0  0  0  0  0
   -3.9176   -3.9502   -1.7345 H   0  0  0  0  0  0  0  0  0  0  0  0
   -3.4194   -4.8820   -4.3284 H   0  0  0  0  0  0  0  0  0  0  0  0
   -5.1750   -6.7318   -6.9039 H   0  0  0  0  0  0  0  0  0  0  0  0
   -4.8624   -7.0479   -5.2141 H   0  0  0  0  0  0  0  0  0  0  0  0
   -3.0433   -5.8509   -7.0490 H   0  0  0  0  0  0  0  0  0  0  0  0
   -3.6892   -4.0897   -7.0645 H   0  0  0  0  0  0  0  0  0  0  0  0
   -5.0334   -3.0640   -6.6240 H   0  0  0  0  0  0  0  0  0  0  0  0
   -5.5621   -2.5294   -9.4825 H   0  0  0  0  0  0  0  0  0  0  0  0
   -5.8041   -3.8592  -10.5898 H   0  0  0  0  0  0  0  0  0  0  0  0
   -2.0635   -2.5062  -11.6534 H   0  0  0  0  0  0  0  0  0  0  0  0
   -3.4077   -1.4804  -11.2130 H   0  0  0  0  0  0  0  0  0  0  0  0
   -3.6497   -2.8102  -12.3203 H   0  0  0  0  0  0  0  0  0  0  0  0
  1  2  2  0  0  0  0
  1  3  1  0  0  0  0
  1  9  1  0  0  0  0
  3  4  2  0  0  0  0
  4  5  2  0  0  0  0
  4  6  1  0  0  0  0
  6  7  2  0  0  0  0
  7  8  1  0  0  0  0
  7  9  1  0  0  0  0
  8 25  1  0  0  0  0
  8 26  1  0  0  0  0
  8 27  1  0  0  0  0
  9 11  1  0  0  0  0
  9 10  1  6  0  0  0
 11 12  1  0  0  0  0
 11 28  1  0  0  0  0
 11 29  1  0  0  0  0
 12 13  1  0  0  0  0
 12 30  1  0  0  0  0
 12 31  1  0  0  0  0
 13 14  2  0  0  0  0
 13 15  1  0  0  0  0
 15 32  1  0  0  0  0
 16 18  1  0  0  0  0
 16 20  1  0  0  0  0
 16 17  1  1  0  0  0
 16 15  1  0  0  0  0
 18 19  1  0  0  0  0
 18 33  1  0  0  0  0
 18 34  1  0  0  0  0
 19 35  1  0  0  0  0
 20 21  1  0  0  0  0
 20 36  1  0  0  0  0
 20 37  1  0  0  0  0
 21 22  1  0  0  0  0
 22 23  1  0  0  0  0
 22 38  1  0  0  0  0
 22 39  1  0  0  0  0
 23 24  1  0  0  0  0
 24 40  1  0  0  0  0
 24 41  1  0  0  0  0
 24 42  1  0  0  0  0
M  END
$$$$
