4P20_AKN_A_101
 OpenBabel10091713573D
Coordinates from PDB:4P20:A:101 Model:1 without hydrogens
 83 85  0  0  1  0  0  0  0  0999 V2000
    3.6940   -7.1950   19.3090 C   0  0  1  0  0  0  0  0  0  0  0  0
    4.9270   -7.7570   20.1110 C   0  0  1  0  0  0  0  0  0  0  0  0
    4.7860   -7.4900   21.6380 C   0  0  2  0  0  0  0  0  0  0  0  0
    4.6900   -5.9450   21.8430 C   0  0  1  0  0  0  0  0  0  0  0  0
    3.4120   -5.4110   21.0600 C   0  0  1  0  0  0  0  0  0  0  0  0
    3.2410   -3.9030   21.1820 C   0  0  0  0  0  0  0  0  0  0  0  0
    4.5840   -5.6580   23.2540 O   0  0  0  0  0  0  0  0  0  0  0  0
    2.4970   -7.9080   19.6580 O   0  0  0  0  0  0  0  0  0  0  0  0
    3.5460   -5.7320   19.5940 O   0  0  0  0  0  0  0  0  0  0  0  0
    1.8750   -3.5430   21.6770 N   0  0  0  0  0  0  0  0  0  0  0  0
   -1.2720   -9.1940   17.7950 C   0  0  2  0  0  0  0  0  0  0  0  0
   -2.4220   -9.1990   16.9210 N   0  0  0  0  0  0  0  0  0  0  0  0
   -1.2780   -7.8760   18.6700 C   0  0  0  0  0  0  0  0  0  0  0  0
   -0.0110   -7.8540   19.6370 C   0  0  2  0  0  0  0  0  0  0  0  0
   -0.0270   -6.6230   20.4700 N   0  0  0  0  0  0  0  0  0  0  0  0
    1.3220   -7.9400   18.7580 C   0  0  2  0  0  0  0  0  0  0  0  0
    1.2800   -9.2750   17.8990 C   0  0  2  0  0  0  0  0  0  0  0  0
    2.4700   -9.3630   17.1120 O   0  0  0  0  0  0  0  0  0  0  0  0
    0.0180   -9.2850   16.9490 C   0  0  1  0  0  0  0  0  0  0  0  0
   -0.0170  -10.5180   16.1880 O   0  0  0  0  0  0  0  0  0  0  0  0
   -0.2840  -10.6150   14.8300 C   0  0  2  0  0  0  0  0  0  0  0  0
   -0.5540  -12.1280   14.5090 C   0  0  2  0  0  0  0  0  0  0  0  0
   -1.6090  -12.5920   15.2880 O   0  0  0  0  0  0  0  0  0  0  0  0
    0.7460  -13.0160   14.7160 C   0  0  1  0  0  0  0  0  0  0  0  0
    0.4700  -14.4500   14.3930 N   0  0  0  0  0  0  0  0  0  0  0  0
    1.9090  -12.4380   13.7970 C   0  0  2  0  0  0  0  0  0  0  0  0
    3.1040  -13.2160   13.9390 O   0  0  0  0  0  0  0  0  0  0  0  0
    2.1480  -10.9310   14.1980 C   0  0  2  0  0  0  0  0  0  0  0  0
    0.8700  -10.1190   14.0370 O   0  0  0  0  0  0  0  0  0  0  0  0
    3.2300  -10.3060   13.3500 C   0  0  0  0  0  0  0  0  0  0  0  0
    3.2990   -8.8760   13.5020 O   0  0  0  0  0  0  0  0  0  0  0  0
    5.0330   -9.1860   19.8450 O   0  0  0  0  0  0  0  0  0  0  0  0
    5.8910   -7.9880   22.2850 O   0  0  0  0  0  0  0  0  0  0  0  0
   -7.2460  -12.4980   15.3320 N   0  0  0  0  0  0  0  0  0  0  0  0
   -3.5530  -10.0330   17.2560 C   0  0  0  0  0  0  0  0  0  0  0  0
   -3.3920  -11.0390   18.0090 O   0  0  0  0  0  0  0  0  0  0  0  0
   -4.9430   -9.6520   16.6600 C   0  0  2  0  0  0  0  0  0  0  0  0
   -5.4810  -10.7830   15.7300 C   0  0  0  0  0  0  0  0  0  0  0  0
   -6.7800  -11.4260   16.2440 C   0  0  0  0  0  0  0  0  0  0  0  0
   -4.8950   -8.6100   15.9320 O   0  0  0  0  0  0  0  0  0  0  0  0
    3.8598   -7.3322   18.2609 H   0  0  0  0  0  0  0  0  0  0  0  0
    5.8159   -7.2553   19.7901 H   0  0  0  0  0  0  0  0  0  0  0  0
    3.9139   -7.9666   22.0344 H   0  0  0  0  0  0  0  0  0  0  0  0
    5.5636   -5.4573   21.4637 H   0  0  0  0  0  0  0  0  0  0  0  0
    2.5621   -5.8925   21.4967 H   0  0  0  0  0  0  0  0  0  0  0  0
    3.3909   -3.4574   20.2208 H   0  0  0  0  0  0  0  0  0  0  0  0
    3.9595   -3.5401   21.8870 H   0  0  0  0  0  0  0  0  0  0  0  0
    3.7957   -6.0935   23.6142 H   0  0  0  0  0  0  0  0  0  0  0  0
    1.1743   -3.8810   21.0173 H   0  0  0  0  0  0  0  0  0  0  0  0
    1.8005   -2.5293   21.7624 H   0  0  0  0  0  0  0  0  0  0  0  0
   -1.3101  -10.0381   18.4515 H   0  0  0  0  0  0  0  0  0  0  0  0
   -2.4349   -8.6423   16.1091 H   0  0  0  0  0  0  0  0  0  0  0  0
   -1.2456   -7.0229   18.0249 H   0  0  0  0  0  0  0  0  0  0  0  0
   -2.1697   -7.8523   19.2609 H   0  0  0  0  0  0  0  0  0  0  0  0
   -0.0420   -8.6959   20.2967 H   0  0  0  0  0  0  0  0  0  0  0  0
    0.0019   -5.8025   19.8647 H   0  0  0  0  0  0  0  0  0  0  0  0
    0.7853   -6.6193   21.0868 H   0  0  0  0  0  0  0  0  0  0  0  0
    1.3941   -7.1088   18.0881 H   0  0  0  0  0  0  0  0  0  0  0  0
    1.2149  -10.1127   18.5614 H   0  0  0  0  0  0  0  0  0  0  0  0
    2.5201   -8.6000   16.5152 H   0  0  0  0  0  0  0  0  0  0  0  0
    0.0819   -8.4486   16.2848 H   0  0  0  0  0  0  0  0  0  0  0  0
   -1.1342  -10.0181   14.5735 H   0  0  0  0  0  0  0  0  0  0  0  0
   -0.8221  -12.2098   13.4764 H   0  0  0  0  0  0  0  0  0  0  0  0
   -1.3736  -12.5211   16.2263 H   0  0  0  0  0  0  0  0  0  0  0  0
    1.0482  -12.9757   15.7416 H   0  0  0  0  0  0  0  0  0  0  0  0
    0.1778  -14.5290   13.4189 H   0  0  0  0  0  0  0  0  0  0  0  0
   -0.2721  -14.7985   14.9999 H   0  0  0  0  0  0  0  0  0  0  0  0
    1.6273  -12.4923   12.7662 H   0  0  0  0  0  0  0  0  0  0  0  0
    3.3961  -13.1941   14.8637 H   0  0  0  0  0  0  0  0  0  0  0  0
    2.4533  -10.9220   15.2235 H   0  0  0  0  0  0  0  0  0  0  0  0
    3.0331  -10.5319   12.3228 H   0  0  0  0  0  0  0  0  0  0  0  0
    4.1668  -10.7106   13.6718 H   0  0  0  0  0  0  0  0  0  0  0  0
    2.4607   -8.4797   13.2171 H   0  0  0  0  0  0  0  0  0  0  0  0
    4.2228   -9.6307   20.1394 H   0  0  0  0  0  0  0  0  0  0  0  0
    6.6896   -7.5635   21.9344 H   0  0  0  0  0  0  0  0  0  0  0  0
   -8.1069  -12.9050   15.6976 H   0  0  0  0  0  0  0  0  0  0  0  0
   -6.5301  -13.2214   15.2638 H   0  0  0  0  0  0  0  0  0  0  0  0
   -5.5737   -9.4899   17.5090 H   0  0  0  0  0  0  0  0  0  0  0  0
   -4.7327  -11.5439   15.6527 H   0  0  0  0  0  0  0  0  0  0  0  0
   -5.7012  -10.3368   14.7828 H   0  0  0  0  0  0  0  0  0  0  0  0
   -7.5377  -10.6737   16.3140 H   0  0  0  0  0  0  0  0  0  0  0  0
   -6.5870  -11.8582   17.2036 H   0  0  0  0  0  0  0  0  0  0  0  0
   -4.3198   -8.7752   15.1686 H   0  0  0  0  0  0  0  0  0  0  0  0
  1 41  1  6  0  0  0
  2  1  1  0  0  0  0
  2 32  1  0  0  0  0
  2 42  1  6  0  0  0
  3  2  1  0  0  0  0
  3 43  1  1  0  0  0
  4  5  1  0  0  0  0
  4  3  1  0  0  0  0
  4 44  1  6  0  0  0
  5  9  1  0  0  0  0
  5 45  1  1  0  0  0
  6  5  1  0  0  0  0
  6 10  1  0  0  0  0
  6 46  1  0  0  0  0
  6 47  1  0  0  0  0
  7  4  1  0  0  0  0
  7 48  1  0  0  0  0
  8  1  1  0  0  0  0
  8 16  1  0  0  0  0
  9  1  1  0  0  0  0
 10 49  1  0  0  0  0
 10 50  1  0  0  0  0
 11 12  1  0  0  0  0
 11 19  1  0  0  0  0
 11 51  1  1  0  0  0
 12 52  1  0  0  0  0
 13 11  1  0  0  0  0
 13 53  1  0  0  0  0
 13 54  1  0  0  0  0
 14 13  1  0  0  0  0
 14 16  1  0  0  0  0
 14 55  1  1  0  0  0
 15 14  1  0  0  0  0
 15 56  1  0  0  0  0
 15 57  1  0  0  0  0
 16 17  1  0  0  0  0
 16 58  1  6  0  0  0
 17 19  1  0  0  0  0
 17 18  1  0  0  0  0
 17 59  1  1  0  0  0
 18 60  1  0  0  0  0
 19 20  1  0  0  0  0
 19 61  1  6  0  0  0
 20 21  1  0  0  0  0
 21 22  1  0  0  0  0
 21 29  1  0  0  0  0
 21 62  1  6  0  0  0
 22 24  1  0  0  0  0
 22 63  1  6  0  0  0
 23 22  1  0  0  0  0
 23 64  1  0  0  0  0
 24 25  1  0  0  0  0
 24 26  1  0  0  0  0
 24 65  1  1  0  0  0
 25 66  1  0  0  0  0
 25 67  1  0  0  0  0
 26 27  1  0  0  0  0
 26 68  1  6  0  0  0
 27 69  1  0  0  0  0
 28 26  1  0  0  0  0
 28 30  1  0  0  0  0
 28 70  1  1  0  0  0
 29 28  1  0  0  0  0
 30 31  1  0  0  0  0
 30 71  1  0  0  0  0
 30 72  1  0  0  0  0
 31 73  1  0  0  0  0
 32 74  1  0  0  0  0
 33  3  1  0  0  0  0
 33 75  1  0  0  0  0
 34 76  1  0  0  0  0
 34 77  1  0  0  0  0
 35 12  1  0  0  0  0
 35 37  1  0  0  0  0
 36 35  2  0  0  0  0
 37 40  1  0  0  0  0
 37 38  1  0  0  0  0
 37 78  1  1  0  0  0
 38 39  1  0  0  0  0
 38 79  1  0  0  0  0
 38 80  1  0  0  0  0
 39 34  1  0  0  0  0
 39 81  1  0  0  0  0
 39 82  1  0  0  0  0
 40 83  1  0  0  0  0
M  END
$$$$
