ligand.pdb
 OpenBabel03221817303D

 51 53  0  0  1  0  0  0  0  0999 V2000
    2.1519    2.6876   -0.5308 N   0  0  0  0  0  0  0  0  0  0  0  0
    3.3342    2.5467   -1.4139 C   0  0  2  0  0  0  0  0  0  0  0  0
    3.8282    3.5209   -1.4823 H   0  0  0  0  0  0  0  0  0  0  0  0
    2.8709    2.1503   -2.8290 C   0  0  0  0  0  0  0  0  0  0  0  0
    3.1135    1.0953   -3.3930 O   0  0  0  0  0  0  0  0  0  0  0  0
    2.0941    3.1092   -3.3987 O   0  0  0  0  0  0  0  0  0  0  0  0
    4.2877    1.5185   -0.7891 C   0  0  0  0  0  0  0  0  0  0  0  0
    5.6419    1.3923   -1.4819 C   0  0  0  0  0  0  0  0  0  0  0  0
    6.5832    2.9008   -1.5241 S   0  0  2  0  0  0  0  0  0  0  0  0
    6.0003    3.8573   -2.2678 H   0  0  0  0  0  0  0  0  0  0  0  0
    8.1537    2.4409   -2.1993 C   0  0  0  0  0  0  0  0  0  0  0  0
    6.8249    3.4194    0.1614 C   0  0  0  0  0  0  0  0  0  0  0  0
    7.6543    4.6915    0.3413 C   0  0  1  0  0  0  0  0  0  0  0  0
    8.6453    4.5662   -0.1114 H   0  0  0  0  0  0  0  0  0  0  0  0
    7.0162    5.8241   -0.2742 O   0  0  0  0  0  0  0  0  0  0  0  0
    7.5202    7.0001    0.4000 C   0  0  2  0  0  0  0  0  0  0  0  0
    8.4229    7.3388   -0.1244 H   0  0  0  0  0  0  0  0  0  0  0  0
    7.8227    6.5869    1.8472 C   0  0  1  0  0  0  0  0  0  0  0  0
    7.0787    6.9682    2.5563 H   0  0  0  0  0  0  0  0  0  0  0  0
    7.7608    5.0603    1.8230 C   0  0  2  0  0  0  0  0  0  0  0  0
    6.8579    4.7412    2.3575 H   0  0  0  0  0  0  0  0  0  0  0  0
    8.8783    4.4442    2.4505 O   0  0  0  0  0  0  0  0  0  0  0  0
    9.1069    7.0344    2.3015 O   0  0  0  0  0  0  0  0  0  0  0  0
    6.5469    8.0732    0.3006 N   0  0  0  0  0  0  0  0  0  0  0  0
    5.3379    8.0198   -0.3409 C   0  0  0  0  0  0  0  0  0  0  0  0
    4.6622    9.1414   -0.2210 N   0  0  0  0  0  0  0  0  0  0  0  0
    5.4875    9.9728    0.5053 C   0  0  0  0  0  0  0  0  0  0  0  0
    5.3295   11.2950    0.9527 C   0  0  0  0  0  0  0  0  0  0  0  0
    4.1706   12.0300    0.7404 N   0  0  0  0  0  0  0  0  0  0  0  0
    6.3577   11.8771    1.6088 N   0  0  0  0  0  0  0  0  0  0  0  0
    7.4697   11.1425    1.8380 C   0  0  0  0  0  0  0  0  0  0  0  0
    7.7214    9.8520    1.5004 N   0  0  0  0  0  0  0  0  0  0  0  0
    6.6803    9.3369    0.8199 C   0  0  0  0  0  0  0  0  0  0  0  0
    1.7122    1.7692   -0.4262 H   0  0  0  0  0  0  0  0  0  0  0  0
    1.4368    3.2830   -0.9410 H   0  0  0  0  0  0  0  0  0  0  0  0
    2.0190    3.9095   -2.8453 H   0  0  0  0  0  0  0  0  0  0  0  0
    3.8134    0.5276   -0.7869 H   0  0  0  0  0  0  0  0  0  0  0  0
    4.4562    1.7744    0.2644 H   0  0  0  0  0  0  0  0  0  0  0  0
    5.5360    1.0544   -2.5163 H   0  0  0  0  0  0  0  0  0  0  0  0
    6.2543    0.6522   -0.9545 H   0  0  0  0  0  0  0  0  0  0  0  0
    8.7331    3.3471   -2.3800 H   0  0  0  0  0  0  0  0  0  0  0  0
    7.9824    1.9258   -3.1420 H   0  0  0  0  0  0  0  0  0  0  0  0
    8.6685    1.7832   -1.4981 H   0  0  0  0  0  0  0  0  0  0  0  0
    7.2775    2.5771    0.6935 H   0  0  0  0  0  0  0  0  0  0  0  0
    5.8158    3.5864    0.5514 H   0  0  0  0  0  0  0  0  0  0  0  0
    9.4043    5.1757    2.8376 H   0  0  0  0  0  0  0  0  0  0  0  0
    9.0715    8.0140    2.3135 H   0  0  0  0  0  0  0  0  0  0  0  0
    5.0008    7.1403   -0.8754 H   0  0  0  0  0  0  0  0  0  0  0  0
    3.5961   11.6723   -0.0147 H   0  0  0  0  0  0  0  0  0  0  0  0
    4.3200   13.0283    0.7901 H   0  0  0  0  0  0  0  0  0  0  0  0
    8.2660   11.6637    2.3644 H   0  0  0  0  0  0  0  0  0  0  0  0
  1 34  1  0  0  0  0
  1 35  1  0  0  0  0
  2  4  1  0  0  0  0
  2  7  1  0  0  0  0
  2  3  1  6  0  0  0
  2  1  1  0  0  0  0
  4  5  2  0  0  0  0
  4  6  1  0  0  0  0
  6 36  1  0  0  0  0
  7  8  1  0  0  0  0
  7 37  1  0  0  0  0
  7 38  1  0  0  0  0
  8 39  1  0  0  0  0
  8 40  1  0  0  0  0
  9 11  1  0  0  0  0
  9 12  1  0  0  0  0
  9 10  1  6  0  0  0
  9  8  1  0  0  0  0
 11 41  1  0  0  0  0
 11 42  1  0  0  0  0
 11 43  1  0  0  0  0
 12 13  1  0  0  0  0
 12 44  1  0  0  0  0
 12 45  1  0  0  0  0
 13 14  1  0  0  0  0
 13 15  1  0  0  0  0
 13 20  1  1  0  0  0
 15 16  1  0  0  0  0
 16 18  1  1  0  0  0
 16 24  1  0  0  0  0
 16 17  1  0  0  0  0
 18 19  1  0  0  0  0
 18 20  1  1  0  0  0
 18 23  1  0  0  0  0
 20 21  1  1  0  0  0
 20 22  1  0  0  0  0
 22 46  1  0  0  0  0
 23 47  1  0  0  0  0
 24 25  1  0  0  0  0
 24 33  1  0  0  0  0
 25 26  2  0  0  0  0
 25 48  1  0  0  0  0
 26 27  1  0  0  0  0
 27 28  2  0  0  0  0
 27 33  1  0  0  0  0
 28 29  1  0  0  0  0
 28 30  1  0  0  0  0
 29 49  1  0  0  0  0
 29 50  1  0  0  0  0
 30 31  2  0  0  0  0
 31 32  1  0  0  0  0
 31 51  1  0  0  0  0
 32 33  2  0  0  0  0
M  END
$$$$
