3MIJ_R14_A_30
 OpenBabel10091713583D
Coordinates from PDB:3MIJ:A:30 Model:1 without hydrogens
103109  0  0  0  0  0  0  0  0999 V2000
   26.3510  -24.5840   13.8910 C   0  0  0  0  0  0  0  0  0  0  0  0
   27.8710  -20.3820   13.3930 C   0  0  0  0  0  0  0  0  0  0  0  0
   31.0480  -16.1280  -17.7880 C   0  0  0  0  0  0  0  0  0  0  0  0
   30.8260  -12.3750  -15.9540 C   0  0  0  0  0  0  0  0  0  0  0  0
   25.6910  -21.5130    8.8870 O   0  0  0  0  0  0  0  0  0  0  0  0
   29.2420  -14.8490  -12.1690 O   0  0  0  0  0  0  0  0  0  0  0  0
   26.2100  -20.9720    5.0980 C   0  0  0  0  0  0  0  0  0  0  0  0
   27.3870  -16.1320   -8.8370 C   0  0  0  0  0  0  0  0  0  0  0  0
   26.3540  -21.4500    6.4000 C   0  0  0  0  0  0  0  0  0  0  0  0
   27.8700  -15.9870  -10.1470 C   0  0  0  0  0  0  0  0  0  0  0  0
   26.2530  -21.8580    4.0250 C   0  0  0  0  0  0  0  0  0  0  0  0
   27.1670  -17.4120   -8.3030 C   0  0  0  0  0  0  0  0  0  0  0  0
   26.4220  -26.5130   -0.4750 C   0  0  0  0  0  0  0  0  0  0  0  0
   26.7910  -23.9280   -7.1570 C   0  0  0  0  0  0  0  0  0  0  0  0
   26.4280  -26.7490   -1.8410 C   0  0  0  0  0  0  0  0  0  0  0  0
   26.6790  -25.0090   -6.3050 C   0  0  0  0  0  0  0  0  0  0  0  0
   26.5760  -23.6950    5.5560 C   0  0  0  0  0  0  0  0  0  0  0  0
   27.9160  -18.3820  -10.3820 C   0  0  0  0  0  0  0  0  0  0  0  0
   26.6300  -24.1520   -0.8790 C   0  0  0  0  0  0  0  0  0  0  0  0
   26.8820  -22.4270   -5.2810 C   0  0  0  0  0  0  0  0  0  0  0  0
   26.5540  -25.9060   -4.0860 C   0  0  0  0  0  0  0  0  0  0  0  0
   26.4220  -23.8150    1.9230 C   0  0  0  0  0  0  0  0  0  0  0  0
   27.2320  -20.3280   -7.3770 C   0  0  0  0  0  0  0  0  0  0  0  0
   27.2930  -23.8360   12.9210 C   0  0  0  0  0  0  0  0  0  0  0  0
   27.9060  -21.5330   12.3850 C   0  0  0  0  0  0  0  0  0  0  0  0
   31.9380  -15.6750  -16.6180 C   0  0  0  0  0  0  0  0  0  0  0  0
   31.8130  -13.4900  -15.5750 C   0  0  0  0  0  0  0  0  0  0  0  0
   26.4710  -23.3030   10.2960 C   0  0  0  0  0  0  0  0  0  0  0  0
   29.6990  -16.1320  -14.1700 C   0  0  0  0  0  0  0  0  0  0  0  0
   25.8670  -22.4800   11.4570 C   0  0  0  0  0  0  0  0  0  0  0  0
   31.0760  -15.4560  -14.3590 C   0  0  0  0  0  0  0  0  0  0  0  0
   26.6500  -25.4140    3.2800 N   0  0  0  0  0  0  0  0  0  0  0  0
   27.0020  -20.8720   -9.4190 N   0  0  0  0  0  0  0  0  0  0  0  0
   26.6610  -25.8830    2.1320 N   0  0  0  0  0  0  0  0  0  0  0  0
   26.8730  -21.8930   -8.7430 N   0  0  0  0  0  0  0  0  0  0  0  0
   26.7520  -23.3380   -3.0890 N   0  0  0  0  0  0  0  0  0  0  0  0
   26.6830  -23.2840    7.8840 N   0  0  0  0  0  0  0  0  0  0  0  0
   28.6170  -17.0500  -12.1920 N   0  0  0  0  0  0  0  0  0  0  0  0
   26.2380  -22.6120    8.9470 C   0  0  0  0  0  0  0  0  0  0  0  0
   29.1680  -15.9460  -12.7320 C   0  0  0  0  0  0  0  0  0  0  0  0
   26.5380  -22.8100    6.6340 C   0  0  0  0  0  0  0  0  0  0  0  0
   28.1380  -17.1240  -10.9250 C   0  0  0  0  0  0  0  0  0  0  0  0
   26.4300  -23.2210    4.2580 C   0  0  0  0  0  0  0  0  0  0  0  0
   27.4410  -18.5390   -9.0800 C   0  0  0  0  0  0  0  0  0  0  0  0
   26.5160  -25.2140    0.0030 C   0  0  0  0  0  0  0  0  0  0  0  0
   26.8920  -22.6370   -6.6560 C   0  0  0  0  0  0  0  0  0  0  0  0
   26.4880  -24.1040    3.1990 C   0  0  0  0  0  0  0  0  0  0  0  0
   27.2300  -19.8430   -8.6200 C   0  0  0  0  0  0  0  0  0  0  0  0
   26.5410  -25.6840   -2.7230 C   0  0  0  0  0  0  0  0  0  0  0  0
   26.6610  -24.8130   -4.9370 C   0  0  0  0  0  0  0  0  0  0  0  0
   26.6420  -24.3810   -2.2420 C   0  0  0  0  0  0  0  0  0  0  0  0
   26.7620  -23.5250   -4.4180 C   0  0  0  0  0  0  0  0  0  0  0  0
   26.7760  -22.4640   12.6310 N   0  0  0  0  0  0  0  0  0  0  0  0
   31.1560  -14.8150  -15.6960 N   0  0  0  0  0  0  0  0  0  0  0  0
   26.5200  -24.9780    1.3040 N   0  0  0  0  0  0  0  0  0  0  0  0
   26.9960  -21.6390   -7.5390 N   0  0  0  0  0  0  0  0  0  0  0  0
   26.7406  -25.5617   14.0836 H   0  0  0  0  0  0  0  0  0  0  0  0
   25.3792  -24.6676   13.4510 H   0  0  0  0  0  0  0  0  0  0  0  0
   26.2808  -24.0406   14.8101 H   0  0  0  0  0  0  0  0  0  0  0  0
   28.6894  -19.7187   13.2055 H   0  0  0  0  0  0  0  0  0  0  0  0
   27.9500  -20.7744   14.3853 H   0  0  0  0  0  0  0  0  0  0  0  0
   26.9491  -19.8482   13.2929 H   0  0  0  0  0  0  0  0  0  0  0  0
   31.6166  -16.7476  -18.4496 H   0  0  0  0  0  0  0  0  0  0  0  0
   30.6936  -15.2697  -18.3196 H   0  0  0  0  0  0  0  0  0  0  0  0
   30.2147  -16.6818  -17.4087 H   0  0  0  0  0  0  0  0  0  0  0  0
   31.3094  -11.4247  -15.8634 H   0  0  0  0  0  0  0  0  0  0  0  0
   29.9807  -12.4090  -15.2988 H   0  0  0  0  0  0  0  0  0  0  0  0
   30.5005  -12.5148  -16.9637 H   0  0  0  0  0  0  0  0  0  0  0  0
   26.0718  -19.9632    4.9301 H   0  0  0  0  0  0  0  0  0  0  0  0
   27.1930  -15.2955   -8.2646 H   0  0  0  0  0  0  0  0  0  0  0  0
   26.3240  -20.7920    7.1945 H   0  0  0  0  0  0  0  0  0  0  0  0
   28.0279  -15.0450  -10.5378 H   0  0  0  0  0  0  0  0  0  0  0  0
   26.1541  -21.5067    3.0597 H   0  0  0  0  0  0  0  0  0  0  0  0
   26.8051  -17.5189   -7.3424 H   0  0  0  0  0  0  0  0  0  0  0  0
   26.3477  -27.3025    0.1854 H   0  0  0  0  0  0  0  0  0  0  0  0
   26.7997  -24.0814   -8.1775 H   0  0  0  0  0  0  0  0  0  0  0  0
   26.3487  -27.7131   -2.2005 H   0  0  0  0  0  0  0  0  0  0  0  0
   26.6087  -25.9639   -6.6900 H   0  0  0  0  0  0  0  0  0  0  0  0
   26.7129  -24.7041    5.7231 H   0  0  0  0  0  0  0  0  0  0  0  0
   28.1066  -19.2195  -10.9541 H   0  0  0  0  0  0  0  0  0  0  0  0
   26.7061  -23.1883   -0.5178 H   0  0  0  0  0  0  0  0  0  0  0  0
   26.9622  -21.4714   -4.8997 H   0  0  0  0  0  0  0  0  0  0  0  0
   26.4857  -26.8637   -4.4645 H   0  0  0  0  0  0  0  0  0  0  0  0
   26.3164  -22.8821    1.4946 H   0  0  0  0  0  0  0  0  0  0  0  0
   27.3807  -19.8137   -6.4947 H   0  0  0  0  0  0  0  0  0  0  0  0
   27.3620  -24.3856   12.0055 H   0  0  0  0  0  0  0  0  0  0  0  0
   28.2569  -23.7498   13.3774 H   0  0  0  0  0  0  0  0  0  0  0  0
   28.8296  -22.0636   12.4862 H   0  0  0  0  0  0  0  0  0  0  0  0
   27.8207  -21.1338   11.3959 H   0  0  0  0  0  0  0  0  0  0  0  0
   32.7712  -15.1221  -16.9987 H   0  0  0  0  0  0  0  0  0  0  0  0
   32.2887  -16.5352  -16.0870 H   0  0  0  0  0  0  0  0  0  0  0  0
   32.1381  -13.3470  -14.5657 H   0  0  0  0  0  0  0  0  0  0  0  0
   32.6532  -13.4539  -16.2365 H   0  0  0  0  0  0  0  0  0  0  0  0
   27.5235  -23.4114   10.4555 H   0  0  0  0  0  0  0  0  0  0  0  0
   25.9925  -24.2598   10.2739 H   0  0  0  0  0  0  0  0  0  0  0  0
   29.7950  -17.1783  -14.3723 H   0  0  0  0  0  0  0  0  0  0  0  0
   29.0059  -15.6748  -14.8448 H   0  0  0  0  0  0  0  0  0  0  0  0
   24.9326  -22.9150   11.7445 H   0  0  0  0  0  0  0  0  0  0  0  0
   25.7264  -21.4734   11.1226 H   0  0  0  0  0  0  0  0  0  0  0  0
   31.8461  -16.1940  -14.2747 H   0  0  0  0  0  0  0  0  0  0  0  0
   31.2024  -14.7068  -13.6056 H   0  0  0  0  0  0  0  0  0  0  0  0
   27.1299  -24.1509    8.0184 H   0  0  0  0  0  0  0  0  0  0  0  0
   28.5580  -17.8563  -12.7538 H   0  0  0  0  0  0  0  0  0  0  0  0
  1 57  1  0  0  0  0
  1 58  1  0  0  0  0
  1 59  1  0  0  0  0
  2 60  1  0  0  0  0
  2 61  1  0  0  0  0
  2 62  1  0  0  0  0
  3 26  1  0  0  0  0
  3 63  1  0  0  0  0
  3 64  1  0  0  0  0
  3 65  1  0  0  0  0
  4 27  1  0  0  0  0
  4 66  1  0  0  0  0
  4 67  1  0  0  0  0
  4 68  1  0  0  0  0
  5 39  2  0  0  0  0
  7  9  1  0  0  0  0
  7 69  1  0  0  0  0
  8 12  1  0  0  0  0
  8 70  1  0  0  0  0
  9 41  2  0  0  0  0
  9 71  1  0  0  0  0
 10  8  2  0  0  0  0
 10 72  1  0  0  0  0
 11  7  2  0  0  0  0
 11 43  1  0  0  0  0
 11 73  1  0  0  0  0
 12 74  1  0  0  0  0
 13 45  1  0  0  0  0
 13 75  1  0  0  0  0
 14 46  2  0  0  0  0
 14 16  1  0  0  0  0
 14 76  1  0  0  0  0
 15 13  2  0  0  0  0
 15 77  1  0  0  0  0
 16 50  2  0  0  0  0
 16 78  1  0  0  0  0
 17 41  1  0  0  0  0
 17 79  1  0  0  0  0
 18 44  1  0  0  0  0
 18 80  1  0  0  0  0
 19 45  2  0  0  0  0
 19 81  1  0  0  0  0
 20 52  2  0  0  0  0
 20 82  1  0  0  0  0
 21 49  2  0  0  0  0
 21 83  1  0  0  0  0
 22 47  2  0  0  0  0
 22 84  1  0  0  0  0
 23 85  1  0  0  0  0
 24  1  1  0  0  0  0
 24 86  1  0  0  0  0
 24 87  1  0  0  0  0
 25  2  1  0  0  0  0
 25 53  1  0  0  0  0
 25 88  1  0  0  0  0
 25 89  1  0  0  0  0
 26 54  1  0  0  0  0
 26 90  1  0  0  0  0
 26 91  1  0  0  0  0
 27 92  1  0  0  0  0
 27 93  1  0  0  0  0
 28 30  1  0  0  0  0
 28 94  1  0  0  0  0
 28 95  1  0  0  0  0
 29 40  1  0  0  0  0
 29 96  1  0  0  0  0
 29 97  1  0  0  0  0
 30 53  1  0  0  0  0
 30 98  1  0  0  0  0
 30 99  1  0  0  0  0
 31 29  1  0  0  0  0
 31100  1  0  0  0  0
 31101  1  0  0  0  0
 33 35  2  0  0  0  0
 33 48  1  0  0  0  0
 34 32  2  0  0  0  0
 35 56  1  0  0  0  0
 36 51  2  0  0  0  0
 37 39  1  0  0  0  0
 37102  1  0  0  0  0
 38 42  1  0  0  0  0
 38103  1  0  0  0  0
 39 28  1  0  0  0  0
 40  6  2  0  0  0  0
 40 38  1  0  0  0  0
 41 37  1  0  0  0  0
 42 10  1  0  0  0  0
 42 18  2  0  0  0  0
 43 17  2  0  0  0  0
 44 12  2  0  0  0  0
 44 48  1  0  0  0  0
 45 55  1  0  0  0  0
 46 20  1  0  0  0  0
 47 32  1  0  0  0  0
 47 43  1  0  0  0  0
 48 23  2  0  0  0  0
 49 15  1  0  0  0  0
 49 51  1  0  0  0  0
 50 21  1  0  0  0  0
 50 52  1  0  0  0  0
 51 19  1  0  0  0  0
 52 36  1  0  0  0  0
 53 24  1  0  0  0  0
 54 27  1  0  0  0  0
 54 31  1  0  0  0  0
 55 22  1  0  0  0  0
 55 34  1  0  0  0  0
 56 23  1  0  0  0  0
 56 46  1  0  0  0  0
M  END
$$$$
