3S4P_JS6_A_50
 OpenBabel03221817303D

111115  0  0  1  0  0  0  0  0999 V2000
    3.3907   16.6660    2.6128 C   0  0  2  0  0  0  0  0  0  0  0  0
    3.5327   17.6085    2.0861 H   0  0  0  0  0  0  0  0  0  0  0  0
    4.6175   15.9381    2.5342 O   0  0  0  0  0  0  0  0  0  0  0  0
    5.1288   15.6885    1.1950 C   0  0  2  0  0  0  0  0  0  0  0  0
    6.1126   15.2310    1.3641 H   0  0  0  0  0  0  0  0  0  0  0  0
    5.3448   17.0111    0.3781 C   0  0  2  0  0  0  0  0  0  0  0  0
    4.3739   17.4959    0.2263 H   0  0  0  0  0  0  0  0  0  0  0  0
    5.9263   16.7438   -1.0167 C   0  0  0  0  0  0  0  0  0  0  0  0
    5.0057   15.7985   -1.7894 C   0  0  1  0  0  0  0  0  0  0  0  0
    4.0059   16.2469   -1.8532 H   0  0  0  0  0  0  0  0  0  0  0  0
    5.4443   15.6129   -3.1783 N   0  0  0  0  0  0  0  0  0  0  0  0
    4.8957   14.4441   -1.0460 C   0  0  1  0  0  0  0  0  0  0  0  0
    5.8939   13.9991   -0.9674 H   0  0  0  0  0  0  0  0  0  0  0  0
    4.2825   14.6812    0.3522 C   0  0  1  0  0  0  0  0  0  0  0  0
    3.3157   15.1482    0.1449 H   0  0  0  0  0  0  0  0  0  0  0  0
    3.9095   13.4709    1.0105 O   0  0  0  0  0  0  0  0  0  0  0  0
    4.9143   12.5607    1.4438 C   0  0  1  0  0  0  0  0  0  0  0  0
    5.5590   13.0507    2.1787 H   0  0  0  0  0  0  0  0  0  0  0  0
    4.1725   11.3702    2.0716 C   0  0  2  0  0  0  0  0  0  0  0  0
    3.1697   11.3171    1.6210 H   0  0  0  0  0  0  0  0  0  0  0  0
    4.0076   11.5971    3.4660 O   0  0  0  0  0  0  0  0  0  0  0  0
    3.0969   10.7385    4.1431 C   0  0  0  0  0  0  0  0  0  0  0  0
    2.4458   11.5556    5.2803 C   0  0  0  0  0  0  0  0  0  0  0  0
    1.4313   12.5356    4.8414 N   0  0  0  0  0  0  0  0  0  0  0  0
    0.1712   11.9405    4.3715 C   0  0  0  0  0  0  0  0  0  0  0  0
   -0.5944   11.1457    5.4410 C   0  0  0  0  0  0  0  0  0  0  0  0
   -1.8306   10.4875    4.8896 C   0  0  0  0  0  0  0  0  0  0  0  0
   -1.7320    9.2137    4.3031 C   0  0  0  0  0  0  0  0  0  0  0  0
   -2.8704    8.5850    3.7962 C   0  0  0  0  0  0  0  0  0  0  0  0
   -4.1141    9.2221    3.8560 C   0  0  0  0  0  0  0  0  0  0  0  0
   -4.2160   10.4782    4.4384 C   0  0  0  0  0  0  0  0  0  0  0  0
   -3.0749   11.1111    4.9435 C   0  0  0  0  0  0  0  0  0  0  0  0
    4.9719   10.1648    1.5976 C   0  0  2  0  0  0  0  0  0  0  0  0
    4.2528    9.3762    1.3441 H   0  0  0  0  0  0  0  0  0  0  0  0
    5.8172    9.4948    2.5123 O   0  0  0  0  0  0  0  0  0  0  0  0
    7.0728    9.9635    3.0051 C   0  0  2  0  0  0  0  0  0  0  0  0
    7.6650   10.4490    2.2175 H   0  0  0  0  0  0  0  0  0  0  0  0
    7.7911    8.6443    3.4859 C   0  0  2  0  0  0  0  0  0  0  0  0
    8.0783    8.0668    2.5989 H   0  0  0  0  0  0  0  0  0  0  0  0
    6.8235    7.7984    4.2504 N   0  0  0  0  0  0  0  0  0  0  0  0
    9.0451    8.9350    4.3358 C   0  0  1  0  0  0  0  0  0  0  0  0
    9.3826    7.9910    4.7817 H   0  0  0  0  0  0  0  0  0  0  0  0
   10.1621    9.3922    3.5737 O   0  0  0  0  0  0  0  0  0  0  0  0
    8.7192    9.9107    5.4648 C   0  0  2  0  0  0  0  0  0  0  0  0
    9.6423   10.2176    5.9722 H   0  0  0  0  0  0  0  0  0  0  0  0
    7.8964    9.2414    6.4326 O   0  0  0  0  0  0  0  0  0  0  0  0
    8.0045   11.1665    4.9101 C   0  0  1  0  0  0  0  0  0  0  0  0
    8.7172   11.7549    4.3155 H   0  0  0  0  0  0  0  0  0  0  0  0
    6.8665   10.8555    4.0897 O   0  0  0  0  0  0  0  0  0  0  0  0
    7.5040   12.0065    6.1127 C   0  0  0  0  0  0  0  0  0  0  0  0
    6.9162   13.2968    5.7559 N   0  0  0  0  0  0  0  0  0  0  0  0
    5.6471   10.6401    0.3108 C   0  0  2  0  0  0  0  0  0  0  0  0
    6.6720   10.2667    0.2270 H   0  0  0  0  0  0  0  0  0  0  0  0
    5.7272   12.0746    0.3696 O   0  0  0  0  0  0  0  0  0  0  0  0
    4.9132   10.2152   -0.9750 C   0  0  0  0  0  0  0  0  0  0  0  0
    3.5490   10.6197   -0.9960 O   0  0  0  0  0  0  0  0  0  0  0  0
    4.0749   13.5266   -1.7961 O   0  0  0  0  0  0  0  0  0  0  0  0
    6.2018   17.9875    1.0671 N   0  0  0  0  0  0  0  0  0  0  0  0
    3.0409   17.0327    4.0920 C   0  0  2  0  0  0  0  0  0  0  0  0
    3.8452   17.6609    4.4963 H   0  0  0  0  0  0  0  0  0  0  0  0
    2.9010   15.8612    4.9929 N   0  0  0  0  0  0  0  0  0  0  0  0
    1.7089   17.8347    4.0865 C   0  0  1  0  0  0  0  0  0  0  0  0
    1.3800   17.9685    5.1240 H   0  0  0  0  0  0  0  0  0  0  0  0
    1.8570   19.1627    3.5631 O   0  0  0  0  0  0  0  0  0  0  0  0
    0.5993   17.0909    3.3131 C   0  0  2  0  0  0  0  0  0  0  0  0
   -0.2689   17.7440    3.1782 H   0  0  0  0  0  0  0  0  0  0  0  0
    0.1333   15.9561    4.0571 O   0  0  0  0  0  0  0  0  0  0  0  0
    1.0824   16.6175    1.9272 C   0  0  2  0  0  0  0  0  0  0  0  0
    0.3954   15.8527    1.5464 H   0  0  0  0  0  0  0  0  0  0  0  0
    2.3327   15.9275    2.0365 O   0  0  0  0  0  0  0  0  0  0  0  0
    1.1170   17.7575    0.8859 C   0  0  0  0  0  0  0  0  0  0  0  0
    1.5845   17.3116   -0.3889 O   0  0  0  0  0  0  0  0  0  0  0  0
    6.9352   16.3174   -0.9341 H   0  0  0  0  0  0  0  0  0  0  0  0
    6.0248   17.6923   -1.5617 H   0  0  0  0  0  0  0  0  0  0  0  0
    6.2942   15.0490   -3.2057 H   0  0  0  0  0  0  0  0  0  0  0  0
    5.6883   16.5154   -3.5881 H   0  0  0  0  0  0  0  0  0  0  0  0
    3.6666    9.9114    4.5786 H   0  0  0  0  0  0  0  0  0  0  0  0
    2.3408   10.3152    3.4733 H   0  0  0  0  0  0  0  0  0  0  0  0
    3.2302   12.1377    5.7797 H   0  0  0  0  0  0  0  0  0  0  0  0
    2.0365   10.8917    6.0460 H   0  0  0  0  0  0  0  0  0  0  0  0
    1.8369   13.0570    4.0597 H   0  0  0  0  0  0  0  0  0  0  0  0
    0.3517   11.3257    3.4828 H   0  0  0  0  0  0  0  0  0  0  0  0
   -0.4708   12.7645    4.0330 H   0  0  0  0  0  0  0  0  0  0  0  0
   -0.8707   11.8049    6.2746 H   0  0  0  0  0  0  0  0  0  0  0  0
    0.0317   10.3599    5.8766 H   0  0  0  0  0  0  0  0  0  0  0  0
   -0.7742    8.7039    4.2365 H   0  0  0  0  0  0  0  0  0  0  0  0
   -2.7890    7.5953    3.3378 H   0  0  0  0  0  0  0  0  0  0  0  0
   -4.9915    8.7108    3.4714 H   0  0  0  0  0  0  0  0  0  0  0  0
   -5.1786   10.9683    4.4950 H   0  0  0  0  0  0  0  0  0  0  0  0
   -3.1646   12.0992    5.3878 H   0  0  0  0  0  0  0  0  0  0  0  0
    6.2314    8.4697    4.7618 H   0  0  0  0  0  0  0  0  0  0  0  0
    7.3012    7.2906    4.9902 H   0  0  0  0  0  0  0  0  0  0  0  0
    9.8750   10.0306    2.9018 H   0  0  0  0  0  0  0  0  0  0  0  0
    8.3709    9.2232    7.2807 H   0  0  0  0  0  0  0  0  0  0  0  0
    8.3325   12.1818    6.8095 H   0  0  0  0  0  0  0  0  0  0  0  0
    6.7318   11.4415    6.6475 H   0  0  0  0  0  0  0  0  0  0  0  0
    7.5747   13.8728    5.2420 H   0  0  0  0  0  0  0  0  0  0  0  0
    6.6513   13.7943    6.6028 H   0  0  0  0  0  0  0  0  0  0  0  0
    5.3978   10.6443   -1.8589 H   0  0  0  0  0  0  0  0  0  0  0  0
    4.9400    9.1243   -1.0754 H   0  0  0  0  0  0  0  0  0  0  0  0
    3.5507   11.5671   -1.2587 H   0  0  0  0  0  0  0  0  0  0  0  0
    3.7431   14.0293   -2.5642 H   0  0  0  0  0  0  0  0  0  0  0  0
    5.7835   18.2475    1.9587 H   0  0  0  0  0  0  0  0  0  0  0  0
    6.2630   18.8430    0.5135 H   0  0  0  0  0  0  0  0  0  0  0  0
    2.7546   15.0265    4.4099 H   0  0  0  0  0  0  0  0  0  0  0  0
    3.8131   15.6591    5.4123 H   0  0  0  0  0  0  0  0  0  0  0  0
    2.6970   19.2579    3.0880 H   0  0  0  0  0  0  0  0  0  0  0  0
    0.8221   15.7161    4.7144 H   0  0  0  0  0  0  0  0  0  0  0  0
    0.1169   18.1834    0.7531 H   0  0  0  0  0  0  0  0  0  0  0  0
    1.7851   18.5691    1.1739 H   0  0  0  0  0  0  0  0  0  0  0  0
    0.8639   16.7959   -0.7948 H   0  0  0  0  0  0  0  0  0  0  0  0
  1 59  1  1  0  0  0
  1 70  1  0  0  0  0
  1  3  1  0  0  0  0
  1  2  1  0  0  0  0
  4  6  1  6  0  0  0
  4  5  1  0  0  0  0
  4  3  1  0  0  0  0
  6  7  1  6  0  0  0
  6  8  1  0  0  0  0
  6 58  1  0  0  0  0
  8  9  1  0  0  0  0
  8 73  1  0  0  0  0
  8 74  1  0  0  0  0
  9 12  1  1  0  0  0
  9 11  1  0  0  0  0
  9 10  1  0  0  0  0
 11 75  1  0  0  0  0
 11 76  1  0  0  0  0
 12 13  1  0  0  0  0
 12 14  1  1  0  0  0
 12 57  1  0  0  0  0
 14  4  1  1  0  0  0
 14 16  1  0  0  0  0
 14 15  1  0  0  0  0
 16 17  1  0  0  0  0
 17 18  1  0  0  0  0
 17 19  1  1  0  0  0
 17 54  1  0  0  0  0
 19 21  1  0  0  0  0
 19 20  1  6  0  0  0
 21 22  1  0  0  0  0
 22 23  1  0  0  0  0
 22 77  1  0  0  0  0
 22 78  1  0  0  0  0
 23 24  1  0  0  0  0
 23 79  1  0  0  0  0
 23 80  1  0  0  0  0
 24 25  1  0  0  0  0
 24 81  1  0  0  0  0
 25 26  1  0  0  0  0
 25 82  1  0  0  0  0
 25 83  1  0  0  0  0
 26 27  1  0  0  0  0
 26 84  1  0  0  0  0
 26 85  1  0  0  0  0
 27 28  2  0  0  0  0
 27 32  1  0  0  0  0
 28 29  1  0  0  0  0
 28 86  1  0  0  0  0
 29 30  2  0  0  0  0
 29 87  1  0  0  0  0
 30 31  1  0  0  0  0
 30 88  1  0  0  0  0
 31 32  2  0  0  0  0
 31 89  1  0  0  0  0
 32 90  1  0  0  0  0
 33 19  1  1  0  0  0
 33 34  1  0  0  0  0
 33 35  1  0  0  0  0
 36 38  1  1  0  0  0
 36 49  1  0  0  0  0
 36 37  1  0  0  0  0
 36 35  1  0  0  0  0
 38 41  1  1  0  0  0
 38 40  1  0  0  0  0
 38 39  1  0  0  0  0
 40 91  1  0  0  0  0
 40 92  1  0  0  0  0
 41 44  1  1  0  0  0
 41 43  1  0  0  0  0
 41 42  1  0  0  0  0
 43 93  1  0  0  0  0
 44 45  1  0  0  0  0
 44 46  1  0  0  0  0
 44 47  1  6  0  0  0
 46 94  1  0  0  0  0
 47 48  1  6  0  0  0
 47 49  1  0  0  0  0
 47 50  1  0  0  0  0
 50 51  1  0  0  0  0
 50 95  1  0  0  0  0
 50 96  1  0  0  0  0
 51 97  1  0  0  0  0
 51 98  1  0  0  0  0
 52 33  1  1  0  0  0
 52 54  1  0  0  0  0
 52 55  1  0  0  0  0
 52 53  1  0  0  0  0
 55 56  1  0  0  0  0
 55 99  1  0  0  0  0
 55100  1  0  0  0  0
 56101  1  0  0  0  0
 57102  1  0  0  0  0
 58103  1  0  0  0  0
 58104  1  0  0  0  0
 59 62  1  1  0  0  0
 59 61  1  0  0  0  0
 59 60  1  0  0  0  0
 61105  1  0  0  0  0
 61106  1  0  0  0  0
 62 64  1  0  0  0  0
 62 63  1  1  0  0  0
 64107  1  0  0  0  0
 65 62  1  1  0  0  0
 65 66  1  0  0  0  0
 65 67  1  0  0  0  0
 67108  1  0  0  0  0
 68 65  1  1  0  0  0
 68 70  1  0  0  0  0
 68 71  1  0  0  0  0
 68 69  1  0  0  0  0
 71 72  1  0  0  0  0
 71109  1  0  0  0  0
 71110  1  0  0  0  0
 72111  1  0  0  0  0
M  END
$$$$
